version 2
run Third_exit_2-16-20191023-00:20:16-5269
attr configname Third_exit_2
attr datetime 20191023-00:20:16
attr experiment Third_exit_2
attr inifile omnetpp.ini
attr iterationvars ""
attr iterationvarsf ""
attr measurement ""
attr network ResponseTimeNetwork
attr processid 5269
attr repetition 16
attr replication #16
attr resultdir results
attr runnumber 16
attr seedset 16
param **.Source.interArrivalTime exponential(6s)
param **.jobPriority bernoulli(0.8)
param **.PS.serviceTimeU1 "uniform(1.2s, 2.0s)"
param **.PS.serviceTimeU2 "uniform(2.4s, 2.8s)"
param **.SS1.serviceTime exponential(1.4s)
param **.SS2.serviceTime exponential(2s)
param **.PS.exitProbability bernoulli(0.2)

vector 0 ResponseTimeNetwork.SS1 queueLength:vector ETV
attr interpolationmode sample-hold
attr title "queue length, vector"
vector 1 ResponseTimeNetwork.SS2 queueLength:vector ETV
attr interpolationmode sample-hold
attr title "queue length, vector"
vector 2 ResponseTimeNetwork.QueueU1 queueLength:vector ETV
attr interpolationmode sample-hold
attr title "queue length, vector"
vector 3 ResponseTimeNetwork.QueueU2 queueLength:vector ETV
attr interpolationmode sample-hold
attr title "queue length, vector"
vector 4 ResponseTimeNetwork.sink lifeTimeU1:vector ETV
attr interpolationmode none
attr title "lifetime of arrived jobs U1, vector"
attr unit s
vector 5 ResponseTimeNetwork.sink lifeTime:vector ETV
attr interpolationmode none
attr title "lifetime of arrived jobs, vector"
attr unit s
vector 6 ResponseTimeNetwork.sink lifeTimeU2:vector ETV
attr interpolationmode none
attr title "lifetime of arrived jobs U2, vector"
attr unit s
0	0	0	0
0	432	490.498052652427	1
0	434	491.313131492809	0
0	765	753.603104142911	1
0	766	754.784565525363	0
0	2910	2790.841111898014	1
0	2911	2791.679281844132	0
0	3452	3400.804775016644	1
0	3456	3401.129201699223	0
0	4645	4613.540142896913	1
0	4646	4616.302272578327	0
0	5685	5630.764872553804	1
0	5686	5631.17379794895	0
0	5727	5650.693233841408	1
0	5729	5650.695674958934	0
0	5835	5724.933434913899	1
0	5839	5726.62174620301	0
0	5845	5728.90502256554	1
0	5846	5729.276786415146	0
0	6212	6060.013892855896	1
0	6214	6061.085454157076	0
0	6220	6062.542459057114	1
0	6224	6064.419061658593	0
0	6227	6064.477205021941	1
0	6229	6064.829337572967	0
0	9392	9252.506736374839	1
0	9396	9254.495367104814	0
0	9590	9427.720469190674	1
0	9591	9428.76311050328	0
0	12535	12446.12255183472	1
0	12539	12451.715185141855	0
0	14940	14838.053845508867	1
0	14941	14839.997300664705	0
0	16752	16695.679141172156	1
0	16754	16695.812004870685	0
0	18795	18902.766798978072	1
0	18796	18904.251852085089	0
0	20847	20805.039327945487	1
0	20849	20805.544547545389	0
0	20855	20808.340877325201	1
0	20856	20808.395367979292	0
0	27207	27462.679043151284	1
0	27211	27464.619794515342	0
1	0	0	0
1	825	819.701963853934	1
1	826	821.104445022896	0
1	845	827.327003072319	1
1	846	828.837741973038	0
1	17927	18033.198363443771	1
1	17929	18034.648177055222	0
2	0	0	0
2	25	19.782116721059	1
2	26	19.868642027433	0
2	30	19.982324469726	1
2	31	21.54410520954	0
2	70	55.185419080433	1
2	72	56.520653409082	2
2	73	56.722310962277	1
2	76	58.554669974493	0
2	105	108.231407155501	1
2	106	109.007425394915	0
2	125	117.950087273401	1
2	126	118.513394176359	0
2	130	119.850617185646	1
2	131	120.174222481395	0
2	135	121.306326266921	1
2	137	121.417754269832	2
2	138	121.98256088193	1
2	141	123.716109781297	0
2	200	205.100025207816	1
2	201	205.414243612621	0
2	205	205.736016253178	1
2	206	206.947573025707	0
2	225	230.244789905232	1
2	226	231.062946135844	0
2	290	344.826955466856	1
2	291	345.186315463049	0
2	295	345.748188860475	1
2	296	346.475714985964	0
2	330	383.569790926272	1
2	331	384.652665945804	0
2	350	414.206441794064	1
2	351	414.683019544593	0
2	380	460.147216540809	1
2	381	461.036807579711	0
2	395	478.136564108607	1
2	398	478.879210363985	0
2	402	479.0180886129	1
2	403	480.2350314281	0
2	412	482.455116662502	1
2	413	483.479912404441	0
2	425	487.906644597234	1
2	426	488.862449742728	0
2	430	490.413321063282	1
2	431	490.498052652427	0
2	435	491.313131492809	1
2	437	491.999759559665	2
2	438	492.429684464321	1
2	441	494.321889637284	0
2	450	497.834483583898	1
2	451	498.152285171864	0
2	460	500.065903220632	1
2	461	501.287549566668	0
2	480	517.495836860548	1
2	481	518.699545042039	0
2	485	520.183994428687	1
2	486	520.418620453597	0
2	505	535.971709877677	1
2	506	536.295190509062	0
2	510	537.094544220928	1
2	511	538.047127170142	0
2	550	579.742783372344	1
2	551	580.724591468253	0
2	555	581.941889484295	1
2	556	582.514233680607	0
2	565	583.942542260413	1
2	566	585.210611515658	0
2	575	594.907257662034	1
2	576	596.433476884218	0
2	590	608.110027799518	1
2	591	609.218026836577	0
2	595	609.741716961157	1
2	596	611.041270393494	0
2	635	647.588017000258	1
2	636	649.238139464998	0
2	650	652.7924142356	1
2	653	654.271971288988	0
2	665	658.193338355101	1
2	666	659.000540634164	0
2	720	715.336018766041	1
2	722	716.119836713599	2
2	723	716.193376083651	1
2	726	717.868177789056	0
2	740	743.28284289802	1
2	741	744.083915955682	0
2	755	748.999668381836	1
2	757	750.079423502591	2
2	758	750.246857296741	1
2	761	752.215815335578	0
2	770	755.580695638261	1
2	771	756.303739976558	0
2	785	764.849562987108	1
2	786	765.246110251388	0
2	810	804.239726764435	1
2	811	805.328367299082	0
2	830	821.870068422207	1
2	832	822.067378936705	2
2	833	822.496431905769	1
2	836	823.749357696243	0
2	865	855.844214528928	1
2	866	856.359972973376	0
2	875	869.251753519157	1
2	876	870.153030859371	0
2	885	873.378099176571	1
2	886	874.868520998028	0
2	890	875.327330900317	1
2	891	876.736842088406	0
2	895	876.771846429844	1
2	896	877.976204086845	0
2	902	879.266189159281	1
2	903	879.43816695903	0
2	907	880.505315150579	1
2	908	881.128727105824	0
2	914	882.134114873717	1
2	915	882.57390363012	0
2	950	924.577723144054	1
2	951	926.09680980762	0
2	960	933.445783361034	1
2	961	933.9426382679	0
2	1005	984.343449651691	1
2	1006	984.701811600356	0
2	1095	1090.675093412719	1
2	1096	1091.156186730055	0
2	1130	1114.189602040281	1
2	1131	1114.79136397574	0
2	1240	1271.537253843104	1
2	1241	1272.914350845656	0
2	1245	1273.169635993861	1
2	1246	1274.373227292291	0
2	1250	1274.72262696274	1
2	1253	1276.225003934271	0
2	1270	1284.155590513417	1
2	1271	1285.332911813934	0
2	1295	1296.990395321446	1
2	1296	1298.308090514793	0
2	1300	1298.491680685038	1
2	1301	1300.021100945315	0
2	1305	1300.255037225758	1
2	1306	1301.485660041227	0
2	1345	1337.519005368815	1
2	1346	1337.997223701128	0
2	1392	1391.190110271683	1
2	1393	1391.406800598783	0
2	1397	1392.652570667206	1
2	1398	1393.074295339865	0
2	1402	1393.528075976073	1
2	1403	1394.851023479683	0
2	1410	1397.616484157118	1
2	1411	1397.696263440831	0
2	1415	1397.750510713059	1
2	1419	1397.934254712448	2
2	1420	1399.24543254724	1
2	1423	1401.212200977041	0
2	1427	1402.197456333582	1
2	1428	1402.733230986951	0
2	1435	1405.146547725922	1
2	1437	1405.223066260133	2
2	1438	1406.457871042697	1
2	1443	1408.312773908807	0
2	1455	1413.761743314121	1
2	1456	1413.970890938519	0
2	1470	1435.645166428607	1
2	1471	1436.943359813291	0
2	1485	1442.185360770003	1
2	1487	1442.267240811112	2
2	1488	1442.459384355781	1
2	1492	1443.00635136941	2
2	1493	1443.913463529659	1
2	1496	1445.760877707315	0
2	1525	1468.101632785612	1
2	1527	1468.974110198966	2
2	1528	1469.688743223002	1
2	1531	1471.467719557447	0
2	1575	1525.185058434609	1
2	1576	1526.910065801428	0
2	1625	1557.074664685312	1
2	1626	1557.877215073906	0
2	1685	1603.91706034224	1
2	1686	1604.228551449093	0
2	1690	1605.748594770996	1
2	1691	1606.187744436624	0
2	1695	1606.509683393911	1
2	1696	1608.116443591962	0
2	1725	1631.692664097229	1
2	1726	1633.02786441898	0
2	1730	1633.612698255951	1
2	1731	1634.514759275746	0
2	1745	1651.503018919193	1
2	1746	1652.968766837226	0
2	1765	1674.919980057327	1
2	1766	1676.214079146879	0
2	1770	1676.581357192854	1
2	1771	1677.967319646897	0
2	1775	1678.629673498043	1
2	1776	1679.24822092806	0
2	1780	1680.280546422862	1
2	1781	1680.992162253196	0
2	1820	1723.437561872413	1
2	1821	1725.167256639002	0
2	1840	1735.557556319251	1
2	1841	1736.917937064224	0
2	1865	1763.441114792842	1
2	1866	1763.921784675572	0
2	1910	1850.618044658744	1
2	1911	1850.849215138077	0
2	1960	1880.051497491737	1
2	1962	1880.178061838028	2
2	1963	1881.15929660666	1
2	1969	1881.915603014769	2
2	1970	1882.695568195164	1
2	1973	1884.399508697718	0
2	1977	1885.485235537991	1
2	1978	1885.998609804913	0
2	1985	1888.858717624547	1
2	1986	1889.398524279699	0
2	1995	1894.444722740435	1
2	1996	1894.648917890086	0
2	2010	1913.913202842838	1
2	2011	1914.404593395423	0
2	2035	1950.2231381126	1
2	2036	1951.031786064894	0
2	2095	1986.058900410374	1
2	2096	1987.599029257887	0
2	2130	2011.918738321827	1
2	2131	2012.583859505389	0
2	2145	2021.208230062017	1
2	2146	2021.925611989128	0
2	2150	2023.086571269543	1
2	2152	2023.360370507954	2
2	2153	2023.477473741884	1
2	2157	2024.343023691851	2
2	2158	2025.039292495067	1
2	2162	2025.424790874939	2
2	2163	2026.984708307425	1
2	2166	2028.6820592846	0
2	2180	2036.168705927838	1
2	2181	2037.207224256861	0
2	2235	2114.114995547659	1
2	2236	2115.565693354256	0
2	2275	2149.320244890794	1
2	2276	2149.68282647062	0
2	2335	2235.867478470995	1
2	2336	2236.502717626069	0
2	2345	2238.677116111202	1
2	2346	2240.317340456429	0
2	2390	2271.260013645146	1
2	2391	2271.739405242725	0
2	2395	2272.348545862993	1
2	2397	2272.388903149734	2
2	2398	2273.398184786177	1
2	2401	2274.604680548793	0
2	2520	2399.048710706649	1
2	2521	2399.593324897493	0
2	2525	2399.868483401599	1
2	2526	2400.845592075827	0
2	2530	2401.427833416335	1
2	2531	2402.811525377313	0
2	2535	2403.860216007301	1
2	2536	2404.643248613233	0
2	2550	2411.774294292467	1
2	2551	2412.689386401847	0
2	2567	2419.978896523535	1
2	2568	2419.986901050517	0
2	2575	2422.534438141188	1
2	2577	2422.968902070093	2
2	2578	2423.2301450082	1
2	2583	2424.540398564645	0
2	2595	2429.696229097691	1
2	2597	2431.182718805569	2
2	2598	2431.339859988334	1
2	2601	2432.834188370573	0
2	2615	2439.081492424827	1
2	2616	2439.467820275941	0
2	2620	2439.881301195804	1
2	2621	2440.862614629039	0
2	2665	2483.366481931506	1
2	2666	2484.537987718724	0
2	2687	2523.213730082877	1
2	2689	2523.379984177188	2
2	2690	2523.921127604896	1
2	2693	2525.653271602111	0
2	2700	2527.854946425157	1
2	2701	2529.182769172097	0
2	2705	2530.234400507679	1
2	2706	2530.484853602032	0
2	2710	2530.967797162169	1
2	2712	2531.126563014492	2
2	2713	2532.482128543983	1
2	2716	2533.749382004904	0
2	2790	2648.738748380116	1
2	2791	2649.162097528529	0
2	2855	2731.155248797111	1
2	2856	2732.172999853163	0
2	2875	2739.505124566983	1
2	2876	2740.481197497877	0
2	2915	2791.862349377154	1
2	2916	2793.234716651522	0
2	2920	2794.665304135108	1
2	2921	2795.158142041535	0
2	2925	2795.700089942116	1
2	2926	2797.151775262625	0
2	2995	2860.733708451243	1
2	2996	2861.340442249869	0
2	3025	2876.55153752573	1
2	3026	2877.030417297794	0
2	3055	2919.531330395859	1
2	3057	2920.562240026949	2
2	3058	2920.833069655802	1
2	3062	2921.446483803337	2
2	3063	2922.793461686131	1
2	3066	2924.739466058035	0
2	3070	2925.322957790095	1
2	3071	2926.693577316721	0
2	3080	2930.670281484903	1
2	3081	2931.181709587902	0
2	3130	2969.097311370138	1
2	3131	2969.530160450337	0
2	3195	3100.744635195788	1
2	3196	3101.244076131736	0
2	3250	3133.583603702586	1
2	3251	3133.768589540322	0
2	3270	3164.334827291218	1
2	3271	3164.631913813897	0
2	3285	3174.63472388066	1
2	3286	3174.989521362866	0
2	3295	3178.914424419462	1
2	3296	3180.04836696165	0
2	3350	3298.319782039615	1
2	3351	3299.919211786888	0
2	3430	3393.255009057857	1
2	3431	3394.449656920024	0
2	3437	3395.954268903945	1
2	3438	3396.439155062363	0
2	3442	3396.574488106092	1
2	3444	3396.663496727902	2
2	3445	3397.802210898214	1
2	3448	3399.079421262332	0
2	3455	3400.865276593969	1
2	3457	3401.129201699223	2
2	3459	3402.123064694715	3
2	3460	3402.674050644116	2
2	3463	3403.954960282037	1
2	3467	3405.53663474994	2
2	3468	3405.751199411677	1
2	3472	3405.918175194164	2
2	3473	3407.728632963711	1
2	3478	3409.279995087051	0
2	3500	3416.80054235136	1
2	3501	3417.775203384086	0
2	3520	3429.638091974396	1
2	3522	3430.073891205175	2
2	3523	3430.50286565332	1
2	3526	3432.191186747162	0
2	3550	3458.080367789807	1
2	3551	3458.697438878923	0
2	3595	3511.038482473752	1
2	3596	3512.204860120064	0
2	3630	3580.678906952937	1
2	3631	3582.362386229735	0
2	3635	3583.701401964278	1
2	3636	3584.28519421174	0
2	3640	3585.517746605429	1
2	3641	3586.229849868741	0
2	3645	3587.245329582923	1
2	3646	3587.526732840862	0
2	3660	3597.519968884483	1
2	3661	3598.706773580093	0
2	3690	3625.254597913249	1
2	3691	3626.967103069869	0
2	3710	3637.300153143812	1
2	3711	3637.734180360409	0
2	3715	3638.155611600248	1
2	3716	3639.576261266443	0
2	3735	3659.971748176564	1
2	3736	3661.127093250512	0
2	3750	3673.832721336788	1
2	3751	3674.439383338721	0
2	3785	3698.036280996523	1
2	3787	3698.633540974098	2
2	3788	3699.013739345016	1
2	3791	3700.99336871987	0
2	3795	3702.175122385636	1
2	3796	3702.58554532917	0
2	3800	3704.271746262028	1
2	3801	3704.502172367813	0
2	3827	3716.871093730485	1
2	3828	3716.961401131197	0
2	3832	3716.971298125262	1
2	3835	3718.921368472657	0
2	3900	3776.911503745991	1
2	3901	3777.972259620988	0
2	4025	3950.736635370907	1
2	4026	3951.25640722493	0
2	4045	3964.890766797185	1
2	4046	3964.949387731831	0
2	4065	3997.064897467782	1
2	4066	3998.207039381466	0
2	4080	4002.619089229431	1
2	4081	4003.602341879442	0
2	4115	4051.823931017273	1
2	4117	4051.881230861019	2
2	4118	4052.786180320618	1
2	4122	4053.469747061914	2
2	4123	4054.580076487412	1
2	4126	4055.780945077961	0
2	4130	4056.549465551738	1
2	4133	4057.232367401993	0
2	4150	4064.033396643573	1
2	4151	4064.683769945351	0
2	4185	4088.97801888554	1
2	4186	4089.072342898863	0
2	4205	4096.442210511271	1
2	4206	4096.738470101093	0
2	4240	4118.656659975856	1
2	4241	4118.772355147628	0
2	4255	4145.602890166803	1
2	4256	4146.425835127452	0
2	4305	4178.144843047401	1
2	4307	4178.480163433338	2
2	4308	4178.77134852382	1
2	4311	4180.592532838794	0
2	4345	4213.760523537652	1
2	4346	4215.124307362375	0
2	4360	4251.508766357399	1
2	4361	4252.827109465969	0
2	4385	4310.859785495744	1
2	4386	4310.883022247977	0
2	4405	4342.813312099757	1
2	4406	4342.944620913035	0
2	4415	4346.339673905122	1
2	4416	4346.75294996798	0
2	4420	4348.208803018707	1
2	4421	4348.57624562364	0
2	4435	4369.278116434828	1
2	4436	4370.100510705888	0
2	4540	4503.510995257807	1
2	4541	4504.268733942336	0
2	4565	4536.000736807125	1
2	4567	4536.180530358041	2
2	4569	4536.192204962129	3
2	4570	4537.554758824919	2
2	4573	4539.373179100965	1
2	4577	4539.512038741709	2
2	4578	4541.143052303743	1
2	4584	4542.02001435592	2
2	4585	4542.604874210384	1
2	4589	4543.44360279653	2
2	4590	4543.906656883423	1
2	4593	4545.374061838117	0
2	4615	4593.15353676513	1
2	4616	4594.214395463487	0
2	4635	4609.625641248201	1
2	4636	4610.249790394886	0
2	4650	4617.157814788225	1
2	4651	4617.772149335032	0
2	4655	4619.569728449821	1
2	4656	4619.589193971453	0
2	4680	4641.927186782146	1
2	4681	4642.646010660097	0
2	4685	4643.484265101993	1
2	4686	4644.047420648947	0
2	4705	4666.539488527478	1
2	4706	4667.839446603174	0
2	4730	4693.884483473631	1
2	4731	4693.966219021372	0
2	4780	4732.841291351296	1
2	4781	4734.083186419525	0
2	4815	4771.643207559604	1
2	4816	4771.839166765349	0
2	4820	4772.113965245437	1
2	4821	4773.682088648589	0
2	4830	4776.629373238504	1
2	4831	4778.08109967245	0
2	4837	4779.734516363995	1
2	4838	4780.05094545169	0
2	4875	4813.968868525477	1
2	4876	4815.68434116946	0
2	4935	4910.253347833155	1
2	4936	4911.360331552852	0
2	4980	4964.105627105916	1
2	4981	4965.370515211395	0
2	5005	4986.220999166628	1
2	5006	4987.250613376361	0
2	5025	4995.177081989027	1
2	5026	4996.203859864126	0
2	5045	5008.065014081612	1
2	5047	5008.356435535494	2
2	5048	5009.780819753961	1
2	5051	5011.26175139028	0
2	5075	5065.384968724819	1
2	5076	5066.287725151881	0
2	5080	5066.917498386101	1
2	5081	5067.682277590028	0
2	5105	5099.324416845008	1
2	5106	5100.199501635333	0
2	5140	5134.909467185264	1
2	5141	5135.562832766117	0
2	5190	5171.520020022516	1
2	5191	5171.836837628243	0
2	5205	5178.127435922502	1
2	5207	5179.12674531068	2
2	5208	5179.59043731941	1
2	5211	5181.110148348381	0
2	5215	5181.688169335418	1
2	5217	5182.398673401792	2
2	5218	5182.74257586049	1
2	5222	5183.505798199011	2
2	5223	5184.193586415705	1
2	5226	5185.974083685596	0
2	5250	5198.309649829304	1
2	5251	5199.27519640629	0
2	5275	5227.772353700901	1
2	5276	5228.276910137746	0
2	5315	5244.468062351164	1
2	5317	5244.82565923135	2
2	5318	5245.535782481507	1
2	5321	5246.999318248183	0
2	5345	5259.037544739855	1
2	5346	5259.665112375547	0
2	5375	5285.318615395137	1
2	5378	5286.859803748682	0
2	5392	5291.556941358802	1
2	5393	5292.130718342953	0
2	5465	5393.716093036417	1
2	5466	5394.94876278046	0
2	5500	5443.704661901679	1
2	5501	5444.618360526411	0
2	5505	5446.245956117763	1
2	5506	5446.593374203069	0
2	5522	5455.345303022233	1
2	5523	5455.450085451057	0
2	5530	5458.065174226577	1
2	5531	5458.590675689069	0
2	5535	5459.426878418004	1
2	5536	5460.306671873269	0
2	5540	5460.423658297917	1
2	5542	5460.902506307258	2
2	5543	5461.633270526094	1
2	5546	5463.535771993337	0
2	5610	5529.257433106675	1
2	5611	5530.511027446145	0
2	5630	5572.376770095112	1
2	5632	5573.591369049045	2
2	5633	5573.669095961279	1
2	5636	5574.972092436529	0
2	5665	5610.631970409834	1
2	5666	5611.371977255562	0
2	5690	5632.835044408308	1
2	5691	5633.11510611485	0
2	5700	5640.534507016629	1
2	5702	5642.10444407792	2
2	5703	5642.251239994292	1
2	5707	5642.750114277944	2
2	5708	5644.206925358188	1
2	5712	5645.36030099503	2
2	5713	5645.713998786297	1
2	5716	5646.921168907669	0
2	5722	5648.132293167396	1
2	5723	5648.753759511497	0
2	5730	5650.695674958934	1
2	5731	5652.439164375264	0
2	5760	5667.47164507416	1
2	5761	5667.647604825477	0
2	5765	5668.653747170433	1
2	5766	5669.386019713002	0
2	5795	5686.449800600086	1
2	5796	5687.376265760153	0
2	5820	5719.897886770228	1
2	5821	5720.304577609269	0
2	5830	5722.755353781733	1
2	5831	5723.730322642285	0
2	5840	5726.62174620301	1
2	5841	5727.096355612282	0
2	5850	5729.910007840877	1
2	5851	5730.817176549376	0
2	5855	5730.821676182883	1
2	5856	5732.124681171269	0
2	5875	5771.148366189966	1
2	5876	5771.676160759304	0
2	5930	5819.710029810874	1
2	5934	5820.916603120842	2
2	5935	5820.935923859835	1
2	5938	5822.254421511278	0
2	5945	5823.884729588255	1
2	5946	5825.332015450843	0
2	5995	5884.474020792144	1
2	5996	5884.915008916239	0
2	6005	5892.361751344689	1
2	6006	5893.263126018253	0
2	6015	5896.52035980066	1
2	6016	5897.024915012283	0
2	6025	5900.384830768244	1
2	6026	5901.603513822798	0
2	6040	5914.613214839854	1
2	6041	5914.802246066001	0
2	6050	5917.468622111452	1
2	6051	5917.995751892966	0
2	6075	5943.382636176882	1
2	6076	5944.532705911604	0
2	6115	5977.310068223766	1
2	6116	5978.540333527569	0
2	6120	5979.730078515102	1
2	6121	5980.090296004024	0
2	6140	5997.463726099136	1
2	6141	5997.580744582682	0
2	6145	5999.368586972641	1
2	6146	5999.539277361601	0
2	6150	6000.280203749785	1
2	6151	6000.955947245925	0
2	6207	6058.111492279373	1
2	6208	6058.305578310257	0
2	6215	6061.085454157076	1
2	6216	6061.271437918051	0
2	6225	6064.419061658593	1
2	6226	6064.477205021941	0
2	6230	6064.829337572967	1
2	6232	6065.649880960551	2
2	6233	6066.365638669842	1
2	6236	6067.730092086905	0
2	6245	6073.951716078968	1
2	6246	6075.154090968304	0
2	6255	6085.281366876443	1
2	6256	6085.656648369998	0
2	6320	6147.345387086487	1
2	6321	6147.533654774438	0
2	6340	6158.391649202508	1
2	6341	6159.041258729142	0
2	6425	6256.062961506746	1
2	6426	6256.472888452399	0
2	6440	6271.490942697025	1
2	6441	6271.658804968576	0
2	6460	6281.790209218837	1
2	6461	6282.745513655612	0
2	6465	6282.888929180842	1
2	6466	6284.716637532966	0
2	6470	6285.486253855427	1
2	6471	6286.362897308165	0
2	6507	6309.023877559702	1
2	6508	6309.13966859858	0
2	6512	6310.044244569052	1
2	6514	6310.485354056647	2
2	6515	6310.687805875945	1
2	6518	6312.376920843492	0
2	6550	6350.455036893429	1
2	6553	6351.354959693985	0
2	6560	6353.453850406338	1
2	6561	6354.120010362255	0
2	6565	6354.237128297834	1
2	6566	6355.998209339629	0
2	6575	6361.090169342174	1
2	6576	6362.140498375957	0
2	6600	6394.808696783952	1
2	6601	6394.923972544757	0
2	6605	6396.343655764332	1
2	6606	6396.676390574252	0
2	6610	6396.995936478756	1
2	6611	6398.258921191035	0
2	6620	6400.810306542903	1
2	6621	6401.908837709783	0
2	6625	6403.223238126215	1
2	6626	6403.578368863857	0
2	6640	6418.473565969932	1
2	6641	6419.654883178822	0
2	6645	6419.678514339957	1
2	6647	6419.848270213025	2
2	6648	6421.005472547501	1
2	6652	6422.22065021599	2
2	6653	6423.004166719258	1
2	6656	6424.39314459426	0
2	6660	6424.515447982473	1
2	6661	6426.249411810875	0
2	6665	6427.506171367505	1
2	6666	6428.1670384304	0
2	6675	6437.492400070135	1
2	6676	6437.554030691479	0
2	6680	6438.503302855674	1
2	6681	6438.805503599924	0
2	6695	6457.869710437969	1
2	6696	6458.221963629546	0
2	6707	6462.108916698192	1
2	6709	6462.786903541869	2
2	6710	6462.982340833843	1
2	6713	6464.321651178897	0
2	6717	6465.922765379615	1
2	6718	6466.281521348581	0
2	6750	6483.398577290693	1
2	6751	6484.434209289192	0
2	6820	6601.089416297284	1
2	6821	6601.225848429134	0
2	6825	6602.294651974809	1
2	6826	6602.710570753595	0
2	6830	6603.432606222934	1
2	6831	6604.623115081197	0
2	6900	6679.785877051418	1
2	6901	6681.229191116039	0
2	6915	6688.257959206797	1
2	6916	6688.283907173808	0
2	6920	6688.600653435055	1
2	6923	6689.489712850611	0
2	6995	6756.006552995658	1
2	6996	6757.159023812115	0
2	7007	6763.988522917652	1
2	7009	6765.684621429279	2
2	7010	6765.771525415626	1
2	7013	6767.575981501338	0
2	7065	6868.876876588891	1
2	7066	6869.253347414598	0
2	7085	6875.792940130807	1
2	7086	6876.930763409818	0
2	7095	6879.338110600318	1
2	7096	6880.594317676415	0
2	7110	6893.446052200418	1
2	7111	6894.632587901167	0
2	7120	6897.695987285282	1
2	7121	6899.294541216519	0
2	7190	6966.029364689711	1
2	7191	6967.427599465185	0
2	7240	7032.923446266478	1
2	7241	7033.601705115166	0
2	7245	7034.07377227155	1
2	7246	7034.973806823668	0
2	7255	7038.598199918797	1
2	7256	7038.938618576135	0
2	7290	7068.479989667096	1
2	7291	7068.801045371688	0
2	7295	7070.099986398012	1
2	7296	7070.604944904058	0
2	7310	7088.498377941801	1
2	7311	7088.960722066128	0
2	7340	7116.087107740021	1
2	7341	7117.287377953566	0
2	7345	7118.208168958203	1
2	7346	7118.610149229541	0
2	7365	7132.105996852457	1
2	7366	7133.353904586767	0
2	7400	7153.56575091866	1
2	7401	7154.290698050478	0
2	7405	7155.947585703862	1
2	7406	7156.180892010549	0
2	7460	7203.375338883042	1
2	7461	7204.340242009675	0
2	7530	7345.370008751799	1
2	7531	7345.522431049204	0
2	7550	7354.266175723754	1
2	7551	7354.925234762434	0
2	7570	7367.624510252411	1
2	7571	7369.045828347688	0
2	7620	7424.057197987212	1
2	7621	7424.495434190227	0
2	7685	7499.096046320239	1
2	7686	7499.371262348413	0
2	7740	7561.172766073506	1
2	7741	7561.709613062943	0
2	7765	7574.71031471507	1
2	7766	7575.189339688203	0
2	7815	7634.636903300115	1
2	7816	7634.927979902464	0
2	7820	7635.95940320521	1
2	7821	7636.214417627553	0
2	7835	7642.090346018922	1
2	7836	7643.606064672084	0
2	7870	7671.041408556327	1
2	7871	7672.678869546174	0
2	7895	7741.122166126885	1
2	7896	7741.146494539875	0
2	7910	7758.42690442989	1
2	7911	7759.298561298886	0
2	7995	7884.188002919135	1
2	7996	7885.450958746131	0
2	8005	7893.031395932833	1
2	8006	7893.734832346675	0
2	8010	7894.44683159032	1
2	8012	7895.208103642769	2
2	8013	7895.242692059328	1
2	8016	7896.700131111269	0
2	8020	7896.934127549021	1
2	8021	7898.693636505728	0
2	8025	7898.988860374229	1
2	8027	7899.578009275964	2
2	8028	7899.966147706521	1
2	8031	7901.896531007489	0
2	8050	7935.255793504266	1
2	8051	7937.062206426567	0
2	8055	7937.547833845349	1
2	8056	7938.719107929921	0
2	8085	7993.089758559128	1
2	8086	7994.865566588028	0
2	8125	8041.004904914319	1
2	8126	8041.153160634109	0
2	8130	8041.573307869951	1
2	8131	8043.062855640085	0
2	8175	8084.409486287299	1
2	8176	8084.749137691947	0
2	8180	8084.758898891626	1
2	8181	8086.181215698252	0
2	8195	8104.960084274322	1
2	8196	8105.382275918667	0
2	8285	8309.075639218522	1
2	8286	8309.609939820317	0
2	8315	8327.877432721617	1
2	8316	8328.047335661313	0
2	8335	8349.158810473624	1
2	8336	8350.818867374266	0
2	8360	8399.125981670031	1
2	8361	8400.806027293196	0
2	8367	8401.932508277031	1
2	8368	8402.485908245659	0
2	8375	8404.470694328416	1
2	8376	8405.665885011098	0
2	8380	8407.213931043479	1
2	8383	8407.469002646572	0
2	8480	8486.638142236877	1
2	8481	8487.002577945276	0
2	8485	8487.052492464099	1
2	8487	8487.098120591728	2
2	8488	8488.657055322884	1
2	8492	8488.984770696465	2
2	8493	8490.237672038062	1
2	8496	8491.70835792931	0
2	8540	8543.450121495545	1
2	8541	8543.843522054153	0
2	8545	8543.930678840344	1
2	8546	8545.632522537755	0
2	8555	8547.782880819414	1
2	8556	8548.792402710216	0
2	8560	8549.597014512957	1
2	8561	8550.653918462256	0
2	8567	8551.690477531422	1
2	8568	8551.885867422083	0
2	8580	8558.653220662697	1
2	8581	8559.399699398548	0
2	8585	8559.974817015612	1
2	8586	8561.027899085776	0
2	8610	8602.333976657059	1
2	8611	8603.8337063702	0
2	8625	8611.643785093945	1
2	8626	8612.573070721612	0
2	8630	8612.829717459861	1
2	8631	8613.79272511723	0
2	8635	8614.291935133484	1
2	8636	8615.263654732802	0
2	8657	8623.750944529573	1
2	8658	8624.955966788857	0
2	8685	8668.145083299931	1
2	8686	8668.345434966734	0
2	8690	8669.439389439226	1
2	8691	8669.675664824112	0
2	8695	8670.552090844655	1
2	8696	8671.060919067315	0
2	8700	8671.36197417267	1
2	8701	8672.691356173395	0
2	8705	8673.467621029569	1
2	8707	8674.164914265308	2
2	8708	8674.38950110828	1
2	8711	8676.135986648178	0
2	8715	8676.466041505751	1
2	8717	8677.375388361674	2
2	8718	8677.767339104278	1
2	8721	8679.723129217749	0
2	8725	8680.339169202689	1
2	8727	8680.554114129983	2
2	8728	8681.351767334206	1
2	8731	8682.663248048587	0
2	8755	8696.202462407694	1
2	8758	8697.347023863407	0
2	8780	8711.565320796922	1
2	8781	8713.180498995189	0
2	8835	8787.436621015687	1
2	8836	8788.926027983348	0
2	8850	8800.514727330091	1
2	8851	8801.422590559403	0
2	8855	8802.117672688211	1
2	8856	8803.28067626437	0
2	8865	8805.460997408035	1
2	8866	8806.220773870243	0
2	8870	8806.226165671626	1
2	8871	8807.650107022679	0
2	8905	8850.734802438087	1
2	8906	8851.165446915855	0
2	8915	8853.934489033412	1
2	8917	8855.119991795659	2
2	8918	8855.142264111786	1
2	8923	8856.789463952257	0
2	8940	8865.589876384295	1
2	8941	8866.333656715319	0
2	8960	8872.085795741303	1
2	8961	8873.040063504234	0
2	8970	8884.561562803083	1
2	8971	8885.80923757994	0
2	8975	8886.641095410258	1
2	8976	8887.250813671885	0
2	8995	8920.242388152152	1
2	8997	8920.631548454997	2
2	8998	8921.913096658886	1
2	9001	8923.881444951892	0
2	9020	8937.382180298046	1
2	9021	8938.636564113564	0
2	9060	8965.982829143171	1
2	9061	8967.036138042264	0
2	9070	8969.212196155444	1
2	9073	8970.882771680071	0
2	9160	9060.703677828402	1
2	9161	9060.755358201358	0
2	9165	9061.260271040347	1
2	9167	9061.714871503554	2
2	9168	9062.279606289695	1
2	9171	9064.15285261115	0
2	9205	9093.23196123163	1
2	9207	9093.384338398102	2
2	9208	9093.572130582711	1
2	9211	9094.985699704705	0
2	9230	9113.067441751334	1
2	9232	9113.993359239075	2
2	9233	9114.786416926928	1
2	9236	9116.343723241188	0
2	9265	9147.26170740154	1
2	9266	9148.365391203832	0
2	9275	9150.4217488622	1
2	9276	9151.943953012873	0
2	9280	9153.045155047568	1
2	9281	9153.853616627317	0
2	9285	9154.158038979873	1
2	9286	9155.332237676729	0
2	9290	9157.01161764565	1
2	9291	9157.243692261365	0
2	9300	9178.278603611282	1
2	9301	9179.291592660573	0
2	9335	9196.081915358166	1
2	9336	9196.090904849314	0
2	9405	9260.772863360872	1
2	9406	9261.865287066776	0
2	9410	9262.241950132484	1
2	9411	9263.093850959059	0
2	9455	9324.827179960523	1
2	9456	9325.746947357208	0
2	9460	9326.816859838665	1
2	9463	9327.572521754504	0
2	9485	9346.761520584665	1
2	9487	9347.405317264649	2
2	9488	9348.302826915887	1
2	9491	9349.962250807528	0
2	9525	9386.272851543764	1
2	9526	9386.95947093808	0
2	9565	9418.783857112365	1
2	9567	9419.06309645949	2
2	9569	9419.569845942056	3
2	9570	9420.093125193874	2
2	9574	9421.217706531757	3
2	9575	9421.583887935365	2
2	9578	9423.038313288363	1
2	9581	9424.599119353043	0
2	9585	9426.318561123812	1
2	9586	9426.499416127177	0
2	9605	9438.452100292474	1
2	9607	9439.194363311261	2
2	9608	9439.378609828125	1
2	9612	9439.533032560618	2
2	9613	9440.953466422889	1
2	9617	9441.965582244765	2
2	9618	9442.659532076899	1
2	9621	9444.209973272156	0
2	9625	9445.21562538203	1
2	9626	9445.749754227731	0
2	9630	9446.432955412033	1
2	9631	9447.46876856241	0
2	9680	9501.550907177928	1
2	9682	9502.708042450321	2
2	9683	9503.1251299931	1
2	9687	9503.140571163673	2
2	9688	9504.463722182092	1
2	9692	9505.855740674848	2
2	9693	9506.073460306813	1
2	9696	9507.535327145298	0
2	9710	9514.840665074124	1
2	9711	9515.996114161342	0
2	9720	9519.500898236872	1
2	9721	9519.635100689634	0
2	9725	9520.818613341253	1
2	9726	9521.46333234544	0
2	9755	9551.846684358792	1
2	9756	9553.229569975717	0
2	9785	9582.175414950105	1
2	9786	9583.252080698763	0
2	9820	9603.08310641847	1
2	9821	9604.498152641615	0
2	9825	9604.597882793214	1
2	9826	9605.838950861281	0
2	9880	9691.266092729691	1
2	9881	9691.379708255036	0
2	9887	9692.914557618695	1
2	9888	9693.249952814123	0
2	9892	9693.357166527454	1
2	9893	9694.835364812194	0
2	9900	9697.052290378512	1
2	9901	9697.947060666933	0
2	9937	9728.803509633721	1
2	9938	9728.897178227859	0
2	9955	9735.983958676257	1
2	9956	9736.952657553649	0
2	9985	9756.884103846684	1
2	9986	9757.907682769131	0
2	10015	9811.919173044602	1
2	10016	9813.104684779043	0
2	10020	9813.972094693014	1
2	10021	9814.764765077266	0
2	10040	9845.272782446629	1
2	10041	9846.888218283231	0
2	10060	9873.215027680676	1
2	10061	9873.473942361382	0
2	10070	9876.681215425224	1
2	10071	9876.73500934228	0
2	10080	9890.575417904682	1
2	10083	9892.257065780152	0
2	10087	9893.80342951333	1
2	10088	9893.870089264464	0
2	10125	9917.219973051182	1
2	10126	9918.073924347334	0
2	10200	10044.155803330758	1
2	10202	10044.426377130688	2
2	10203	10044.543449563024	1
2	10206	10045.837667412174	0
2	10225	10074.492027518019	1
2	10226	10074.514994435656	0
2	10255	10098.728456103802	1
2	10256	10099.144818520932	0
2	10275	10119.138533949883	1
2	10277	10120.774903244087	2
2	10278	10120.843616588289	1
2	10281	10122.747895171741	0
2	10285	10123.725105752314	1
2	10286	10124.168237149777	0
2	10320	10169.574755840796	1
2	10322	10169.926296798366	2
2	10323	10170.77093719274	1
2	10326	10172.50517526597	0
2	10415	10295.97868790981	1
2	10416	10296.18067080818	0
2	10425	10298.047461852379	1
2	10426	10299.196751289507	0
2	10445	10316.231711852483	1
2	10446	10316.529205917356	0
2	10470	10346.017422890908	1
2	10472	10346.199374630274	2
2	10473	10346.865322941372	1
2	10476	10348.469210784154	0
2	10487	10352.185184605871	1
2	10488	10352.245260145532	0
2	10515	10383.60033408501	1
2	10516	10384.261627357422	0
2	10520	10384.313388313921	1
2	10523	10385.755521073161	0
2	10530	10388.016395265638	1
2	10531	10389.373772850602	0
2	10540	10393.154122146822	1
2	10542	10394.180148662745	2
2	10543	10394.679600146278	1
2	10546	10396.051034797407	0
2	10550	10396.098668053557	1
2	10552	10396.113158163915	2
2	10553	10397.79779935149	1
2	10557	10398.901167753804	2
2	10558	10399.505608821339	1
2	10562	10400.851990815005	2
2	10563	10401.338042930192	1
2	10567	10401.87762909672	2
2	10569	10402.558852730923	3
2	10570	10403.280148701979	2
2	10574	10403.421618162029	3
2	10575	10404.77030472984	2
2	10579	10405.365446165205	3
2	10581	10405.603047301636	4
2	10582	10406.243863581171	3
2	10585	10408.20289347866	2
2	10588	10409.817967228456	1
2	10591	10411.140527951582	0
2	10605	10418.7383161749	1
2	10606	10420.585871524194	0
2	10610	10420.86373511297	1
2	10611	10422.397470239194	0
2	10615	10422.72128281296	1
2	10617	10422.963889830818	2
2	10618	10424.247144793177	1
2	10622	10425.42178567313	2
2	10623	10425.510351531969	1
2	10627	10425.909463893274	2
2	10628	10426.725206218117	1
2	10631	10428.284906899014	0
2	10635	10428.749081058224	1
2	10636	10430.080838425846	0
2	10675	10474.084233306877	1
2	10676	10474.895000613599	0
2	10700	10502.440951182837	1
2	10701	10503.76352144823	0
2	10710	10508.337584274762	1
2	10711	10509.613213446856	0
2	10715	10510.407959256297	1
2	10716	10510.902801784993	0
2	10790	10579.384332642375	1
2	10791	10580.901416198359	0
2	10820	10638.757457215566	1
2	10821	10639.164427231027	0
2	10870	10718.492685361926	1
2	10871	10719.704299002246	0
2	10890	10735.828210347305	1
2	10891	10737.486324901905	0
2	10915	10757.629511742102	1
2	10917	10758.150783955371	2
2	10918	10758.406590407256	1
2	10921	10759.66249550442	0
2	10930	10761.868978759417	1
2	10931	10763.066934636895	0
2	10950	10775.780225380723	1
2	10951	10775.970279582197	0
2	10970	10801.208743988322	1
2	10971	10802.30621901183	0
2	10980	10804.354718205122	1
2	10981	10804.861083986336	0
2	10990	10813.313647835837	1
2	10991	10813.358714402224	0
2	11020	10857.302362669321	1
2	11021	10857.692301995691	0
2	11075	10936.053587273473	1
2	11076	10937.099680593235	0
2	11085	10947.83015845016	1
2	11086	10949.060109911594	0
2	11090	10949.096727598803	1
2	11092	10950.390118509283	2
2	11093	10950.732993563745	1
2	11097	10951.826583850989	2
2	11098	10952.02724785443	1
2	11101	10954.006688315715	0
2	11180	11036.486764566218	1
2	11181	11037.342487421232	0
2	11190	11043.704701246331	1
2	11192	11043.793799905907	2
2	11194	11044.014922543687	3
2	11195	11044.303964504529	2
2	11199	11045.320227854207	3
2	11200	11045.550841414672	2
2	11203	11047.523392490041	1
2	11207	11048.306014347563	2
2	11208	11049.143251808476	1
2	11211	11050.990775548037	0
2	11215	11052.268247559848	1
2	11216	11052.469128576968	0
2	11230	11065.150041308541	1
2	11231	11066.189141296638	0
2	11242	11071.013863627684	1
2	11243	11072.420467420374	0
2	11247	11074.222291708381	1
2	11248	11074.370761809018	0
2	11270	11087.619810373192	1
2	11271	11087.940821839325	0
2	11480	11323.960622054882	1
2	11481	11324.962341021994	0
2	11500	11333.621278367487	1
2	11502	11334.333470399661	2
2	11503	11335.047886018604	1
2	11507	11335.161623107255	2
2	11508	11336.752954730168	1
2	11512	11337.118409042826	2
2	11513	11337.963053441383	1
2	11516	11339.412331801057	0
2	11520	11339.744686442668	1
2	11521	11341.297413423807	0
2	11580	11407.640114563356	1
2	11581	11408.557063436458	0
2	11592	11411.129933514642	1
2	11593	11411.764497436906	0
2	11600	11413.880126257146	1
2	11601	11415.381190793167	0
2	11605	11415.915985169322	1
2	11606	11417.229788404281	0
2	11610	11418.175874251517	1
2	11611	11419.154135878893	0
2	11615	11419.487650854442	1
2	11616	11420.69543692893	0
2	11625	11423.989481482903	1
2	11626	11424.746664019366	0
2	11660	11460.069548685705	1
2	11661	11460.535061277699	0
2	11670	11463.497568759293	1
2	11671	11463.94890403528	0
2	11720	11533.301781963983	1
2	11721	11534.541422950417	0
2	11735	11573.292413312214	1
2	11736	11573.784160404638	0
2	11740	11574.090455512978	1
2	11741	11575.660682507963	0
2	11745	11575.722046937278	1
2	11746	11577.635710386545	0
2	11760	11608.292872142315	1
2	11761	11609.233444669432	0
2	11810	11661.668160318269	1
2	11812	11662.430270848083	2
2	11813	11663.248758971649	1
2	11816	11664.935659430879	0
2	11875	11766.009741772837	1
2	11877	11766.688521313146	2
2	11878	11767.484458864919	1
2	11881	11769.091779771327	0
2	11885	11770.435884141602	1
2	11886	11770.598336849987	0
2	11890	11772.022272695858	1
2	11891	11772.366584260642	0
2	11895	11774.055765500277	1
2	11896	11774.080081401087	0
2	11905	11781.489988721082	1
2	11906	11782.342728412365	0
2	11915	11787.382614107994	1
2	11916	11787.641776187055	0
2	11935	11795.59125969845	1
2	11936	11796.168828506296	0
2	11940	11796.438599178108	1
2	11941	11797.762177113344	0
2	11990	11856.895585608716	1
2	11991	11858.503326273144	0
2	12000	11861.724318275492	1
2	12001	11861.95902461894	0
2	12045	11968.485054918717	1
2	12046	11970.219014298269	0
2	12060	11977.199699233882	1
2	12061	11978.015353439244	0
2	12105	12044.703919253893	1
2	12106	12046.445402082376	0
2	12115	12049.409039053359	1
2	12117	12049.630167283037	2
2	12118	12050.355294866466	1
2	12123	12051.83311182724	0
2	12150	12094.612241002901	1
2	12151	12094.84746006041	0
2	12160	12096.911126264323	1
2	12162	12097.692570104625	2
2	12163	12098.198336937029	1
2	12166	12099.414230268385	0
2	12180	12104.917103714471	1
2	12181	12106.362465667162	0
2	12190	12109.056680397305	1
2	12191	12109.813565318684	0
2	12200	12111.108976683764	1
2	12201	12112.80719014297	0
2	12205	12113.352907742459	1
2	12206	12114.265322953488	0
2	12210	12115.008592008577	1
2	12211	12116.239579856049	0
2	12225	12122.283909814296	1
2	12226	12123.737694626192	0
2	12247	12146.302537754912	1
2	12248	12147.808655858794	0
2	12252	12148.96453633048	1
2	12253	12149.03109438085	0
2	12275	12169.063256519515	1
2	12276	12169.860220043628	0
2	12295	12179.100469293684	1
2	12296	12180.623491768941	0
2	12300	12181.905344279002	1
2	12301	12182.363168378949	0
2	12335	12216.643618988541	1
2	12336	12216.694449696725	0
2	12365	12247.025417320495	1
2	12366	12247.246342302401	0
2	12370	12248.408305606472	1
2	12371	12249.156605437126	0
2	12415	12320.433168481302	1
2	12416	12321.021520543307	0
2	12440	12361.7486074146	1
2	12441	12362.58051036613	0
2	12450	12364.82508319285	1
2	12452	12364.963220006899	2
2	12453	12365.496256098331	1
2	12456	12367.069135349051	0
2	12530	12443.049945715646	1
2	12531	12444.399949386108	0
2	12540	12451.715185141855	1
2	12541	12452.507370995797	0
2	12545	12452.860246902384	1
2	12547	12453.744825268893	2
2	12548	12454.264723599583	1
2	12551	12456.099847821772	0
2	12555	12456.827061936016	1
2	12556	12458.097155884907	0
2	12570	12465.053356165221	1
2	12571	12465.964448448815	0
2	12595	12478.904094830087	1
2	12596	12480.040006523651	0
2	12610	12503.959476459578	1
2	12611	12505.353711335845	0
2	12620	12517.615200340941	1
2	12621	12517.80553550531	0
2	12640	12534.337264201164	1
2	12641	12534.488140452294	0
2	12680	12577.576240734832	1
2	12681	12577.896356694175	0
2	12690	12583.066469653061	1
2	12692	12583.120159152632	2
2	12693	12583.140672072271	1
2	12696	12585.050270213248	0
2	12760	12656.470982486505	1
2	12761	12657.033912284322	0
2	12795	12713.184279057984	1
2	12796	12713.72700359354	0
2	12815	12722.822407696485	1
2	12817	12723.029521895621	2
2	12818	12723.848569611616	1
2	12821	12725.414352518849	0
2	12835	12747.292660694238	1
2	12836	12748.689627605325	0
2	12925	12851.601940636943	1
2	12927	12851.926715080769	2
2	12928	12852.028890208956	1
2	12931	12853.269152873997	0
2	12935	12853.301478897052	1
2	12936	12854.482671606969	0
2	12960	12886.058664933108	1
2	12961	12887.243102229356	0
2	12970	12904.725219735582	1
2	12971	12906.622547705395	0
2	12980	12910.124655229736	1
2	12981	12911.23523692496	0
2	12990	12913.903534076342	1
2	12991	12915.227993910625	0
2	13055	13012.083823812863	1
2	13056	13013.42176920614	0
2	13070	13018.971506572106	1
2	13071	13019.125077542411	0
2	13105	13056.20111032481	1
2	13106	13057.810385521536	0
2	13115	13062.251506193258	1
2	13116	13063.293534038166	0
2	13120	13064.116962643678	1
2	13121	13064.631079779143	0
2	13145	13085.073690726766	1
2	13146	13085.823467731325	0
2	13155	13092.355926051332	1
2	13156	13092.521331075847	0
2	13170	13099.146549310838	1
2	13171	13099.497133961799	0
2	13180	13104.244871501027	1
2	13182	13104.428831032483	2
2	13183	13105.053815282742	1
2	13186	13106.614971158514	0
2	13195	13112.556898773135	1
2	13196	13113.808029909907	0
2	13210	13140.819002458257	1
2	13211	13142.390807352171	0
2	13220	13152.546071506772	1
2	13221	13152.87748208005	0
2	13255	13173.699153790433	1
2	13256	13174.545294162348	0
2	13270	13178.570315194911	1
2	13271	13178.871400503345	0
2	13305	13191.340498266202	1
2	13306	13191.852446053174	0
2	13310	13192.308898777698	1
2	13311	13193.057016534169	0
2	13330	13206.781708288344	1
2	13332	13207.620902190005	2
2	13333	13208.003345557471	1
2	13336	13209.951611662639	0
2	13365	13243.891588299227	1
2	13366	13243.934490860613	0
2	13370	13244.358748996556	1
2	13372	13244.974316985997	2
2	13373	13245.809413403632	1
2	13376	13247.041318825247	0
2	13385	13289.684817221247	1
2	13386	13290.793848786735	0
2	13395	13294.361292264333	1
2	13397	13295.100979846819	2
2	13398	13295.284502244769	1
2	13402	13296.584459314037	2
2	13403	13297.276294486812	1
2	13408	13298.574499600595	0
2	13445	13341.752076974294	1
2	13446	13342.391077184997	0
2	13470	13364.529949737112	1
2	13472	13364.831109633379	2
2	13473	13366.196399790664	1
2	13476	13367.997070100401	0
2	13490	13375.185646595187	1
2	13492	13375.629063494379	2
2	13493	13375.701922974748	1
2	13497	13377.051191813576	2
2	13498	13377.592625605141	1
2	13502	13377.795421270794	2
2	13504	13378.228640159755	3
2	13506	13378.928339009319	4
2	13507	13379.285436773312	3
2	13511	13379.71736359025	4
2	13512	13381.155636637856	3
2	13515	13382.40537821186	2
2	13518	13384.236513405491	1
2	13522	13384.82385785918	2
2	13523	13385.853897704196	1
2	13527	13386.775348129254	2
2	13528	13387.155682311964	1
2	13532	13387.271541703786	2
2	13533	13388.893849006121	1
2	13536	13390.506015517575	0
2	13565	13408.273304718579	1
2	13567	13408.324862978167	2
2	13568	13410.075241425748	1
2	13572	13410.393368174339	2
2	13574	13411.375611134039	3
2	13575	13411.49523831934	2
2	13579	13411.577967240049	3
2	13582	13413.371283204782	2
2	13587	13414.741967665891	1
2	13590	13416.052420497614	0
2	13594	13416.522023784791	1
2	13595	13417.833616714853	0
2	13602	13420.500914800806	1
2	13604	13420.591176709806	2
2	13605	13420.980405588563	1
2	13609	13422.297383316772	2
2	13610	13422.826803443696	1
2	13613	13424.558153395656	0
2	13640	13434.677967477289	1
2	13641	13435.147147682005	0
2	13645	13435.851905184941	1
2	13646	13436.62570406373	0
2	13655	13438.690501740773	1
2	13656	13439.424219574911	0
2	13660	13439.756150449469	1
2	13661	13440.856191814264	0
2	13680	13455.21041915135	1
2	13682	13456.203939682112	2
2	13683	13456.826397642469	1
2	13686	13458.576198313175	0
2	13735	13514.662321410372	1
2	13737	13515.697503694249	2
2	13738	13516.018402703819	1
2	13743	13517.796024184269	0
2	13750	13519.833297241704	1
2	13751	13520.825654429723	0
2	13765	13563.068661233664	1
2	13766	13563.306293550964	0
2	13775	13566.00082919446	1
2	13776	13566.118554267723	0
2	13800	13585.992913016531	1
2	13801	13587.714333153921	0
2	13815	13620.827228653546	1
2	13816	13621.598042093008	0
2	13835	13646.146399954178	1
2	13836	13646.678727377843	0
2	13930	13789.769018775815	1
2	13931	13790.027324663323	0
2	13935	13790.183956152189	1
2	13936	13791.419900914316	0
2	13970	13825.733932067281	1
2	13971	13827.11837351868	0
2	13980	13834.688064318725	1
2	13982	13834.905332215313	2
2	13983	13835.170932804649	1
2	13986	13836.96840895195	0
2	14015	13888.084862699746	1
2	14016	13888.988055660693	0
2	14060	13952.243660366007	1
2	14061	13952.877404821805	0
2	14095	14012.485215756354	1
2	14097	14012.58208090651	2
2	14098	14013.892621971929	1
2	14102	14015.197377926452	2
2	14105	14015.736423090549	1
2	14109	14015.753357227258	2
2	14110	14017.535016245657	1
2	14113	14019.168935492152	0
2	14117	14019.767514498343	1
2	14118	14020.563261332066	0
2	14122	14021.160442188247	1
2	14124	14022.062918096996	2
2	14125	14022.108541626559	1
2	14128	14023.61989247285	0
2	14140	14036.524800795814	1
2	14141	14038.004772544441	0
2	14145	14038.798397076444	1
2	14146	14039.551670083006	0
2	14180	14061.132849623493	1
2	14181	14061.554640980247	0
2	14210	14093.65015222751	1
2	14211	14094.991174396125	0
2	14217	14095.533024420434	1
2	14218	14096.317986306546	0
2	14225	14098.298858813972	1
2	14226	14098.876767091824	0
2	14280	14153.001163191299	1
2	14281	14154.933600030024	0
2	14285	14156.476412069026	1
2	14286	14156.563754787784	0
2	14320	14190.883609266445	1
2	14321	14192.625539279402	0
2	14325	14192.626444875477	1
2	14326	14194.222133635961	0
2	14330	14194.758466377543	1
2	14334	14195.50845150016	2
2	14335	14196.15949507472	1
2	14338	14197.712938383453	0
2	14450	14313.406830735958	1
2	14451	14313.50805294374	0
2	14485	14350.967182553786	1
2	14486	14352.045770343813	0
2	14525	14414.867485270975	1
2	14526	14415.034466874017	0
2	14595	14478.953277809693	1
2	14596	14479.682548860287	0
2	14600	14480.811627799028	1
2	14601	14481.093532600453	0
2	14615	14512.793699740704	1
2	14616	14513.014486356307	0
2	14625	14516.270664988645	1
2	14627	14516.428202093277	2
2	14628	14516.644169825255	1
2	14631	14518.285037470362	0
2	14665	14560.272118773641	1
2	14666	14560.975564960305	0
2	14705	14598.336112228371	1
2	14706	14598.88247697814	0
2	14710	14599.81095697716	1
2	14712	14600.789300571847	2
2	14713	14600.876839296283	1
2	14717	14601.243076587636	2
2	14718	14602.407760072635	1
2	14721	14603.741466130824	0
2	14750	14639.309389224038	1
2	14752	14640.640870789747	2
2	14753	14640.95980439869	1
2	14756	14642.721749139887	0
2	14775	14657.177589749866	1
2	14776	14657.873892527666	0
2	14780	14658.778362703461	1
2	14781	14659.827728900906	0
2	14845	14762.480346492166	1
2	14847	14762.739740866291	2
2	14848	14763.317286785911	1
2	14852	14763.404571264081	2
2	14853	14764.556145889717	1
2	14857	14765.501938433913	2
2	14859	14765.665063039178	3
2	14860	14766.27568975951	2
2	14864	14766.541073610819	3
2	14866	14767.276613157935	4
2	14867	14767.567866392838	3
2	14870	14769.077527884053	2
2	14875	14770.384834944116	1
2	14879	14770.5191375467	2
2	14880	14772.050467165405	1
2	14883	14774.001584813589	0
2	14887	14774.892026912725	1
2	14889	14775.301176856913	2
2	14890	14775.376041705007	1
2	14893	14777.217038475195	0
2	14935	14835.322759468462	1
2	14936	14836.742849426628	0
2	14945	14840.560094530033	1
2	14947	14840.862206003124	2
2	14948	14841.773594784734	1
2	14951	14843.144707059671	0
2	15025	14953.75667155746	1
2	15026	14954.084206017602	0
2	15067	14989.201103559165	1
2	15068	14990.331701764343	0
2	15075	14993.077303859257	1
2	15076	14993.792645173957	0
2	15130	15083.341229278636	1
2	15131	15084.322465753458	0
2	15135	15084.62820615687	1
2	15136	15085.571683880776	0
2	15150	15095.952329619263	1
2	15151	15096.852692548925	0
2	15180	15121.234919928627	1
2	15181	15122.089512150285	0
2	15185	15122.740421286061	1
2	15186	15123.399346330499	0
2	15195	15127.883482703881	1
2	15196	15128.419774601952	0
2	15220	15183.969030567905	1
2	15221	15184.996833591956	0
2	15235	15205.035163471741	1
2	15236	15205.889324040022	0
2	15300	15273.314010655305	1
2	15301	15274.431446367234	0
2	15305	15274.514093649861	1
2	15307	15275.53446447512	2
2	15308	15276.365039756812	1
2	15311	15277.902253272116	0
2	15315	15278.064771087605	1
2	15316	15279.485360041737	0
2	15320	15279.831565112032	1
2	15321	15281.263108121149	0
2	15340	15312.009570471406	1
2	15341	15313.08325118355	0
2	15360	15332.425482336249	1
2	15361	15332.705838881509	0
2	15395	15367.519981621869	1
2	15396	15368.724743838386	0
2	15405	15371.26776524427	1
2	15406	15371.999767042337	0
2	15410	15373.561888033715	1
2	15411	15373.593855251571	0
2	15435	15391.353817389511	1
2	15436	15392.36108091984	0
2	15450	15405.044599754942	1
2	15451	15405.212360109883	0
2	15460	15407.784128285897	1
2	15461	15408.725566663342	0
2	15475	15421.939270925631	1
2	15477	15422.729554364267	2
2	15478	15422.82428978851	1
2	15481	15424.373737439159	0
2	15485	15424.934677315337	1
2	15486	15426.341261677462	0
2	15490	15427.777225713536	1
2	15491	15427.998644381966	0
2	15510	15438.372176115862	1
2	15511	15438.578023318239	0
2	15545	15473.488958137795	1
2	15546	15474.294072952393	0
2	15600	15531.209159376712	1
2	15601	15532.453322316445	0
2	15610	15538.149268952048	1
2	15611	15538.374663627246	0
2	15620	15544.993802441273	1
2	15621	15545.948541598174	0
2	15660	15606.644974677472	1
2	15661	15606.77287294642	0
2	15675	15619.808685644177	1
2	15676	15620.503983425166	0
2	15690	15627.087840160009	1
2	15691	15627.13684873526	0
2	15790	15752.2558893326	1
2	15792	15753.158260970955	2
2	15793	15753.393501039308	1
2	15796	15755.344593091023	0
2	15800	15755.651968090057	1
2	15801	15757.187348452111	0
2	15805	15757.902406711305	1
2	15806	15758.586550760356	0
2	15815	15761.036284398492	1
2	15816	15761.608005601428	0
2	15830	15788.836828218904	1
2	15831	15789.139263635015	0
2	15845	15810.460887865811	1
2	15846	15811.74759924816	0
2	15850	15812.265676732966	1
2	15851	15813.185682999101	0
2	15880	15841.223538553974	1
2	15883	15842.507370461103	0
2	15887	15843.651663302155	1
2	15888	15844.420643960078	0
2	15892	15844.826969162518	1
2	15894	15845.306144952761	2
2	15895	15846.334063450944	1
2	15898	15847.547231736172	0
2	15910	15854.124576251023	1
2	15911	15854.459111167386	0
2	15915	15854.741119940955	1
2	15917	15855.349714299562	2
2	15918	15856.302789287723	1
2	15922	15856.621741921693	2
2	15923	15858.171833384305	1
2	15926	15859.992796809308	0
2	15935	15862.89131620187	1
2	15936	15862.988929803378	0
2	15960	15882.432767839149	1
2	15961	15883.632479655137	0
2	15990	15923.644218596548	1
2	15991	15924.966638526454	0
2	16025	15969.281530182682	1
2	16026	15969.870485917724	0
2	16040	15979.38073935551	1
2	16041	15979.705856414559	0
2	16065	16007.325350771206	1
2	16066	16007.588623606133	0
2	16140	16134.265923161008	1
2	16142	16134.473961629753	2
2	16143	16134.714921492987	1
2	16147	16134.951925927462	2
2	16150	16136.156423670516	1
2	16153	16137.49496940551	0
2	16160	16140.254642295036	1
2	16162	16140.735314859669	2
2	16163	16141.223606688619	1
2	16166	16142.616522318028	0
2	16190	16159.050629963689	1
2	16191	16159.360092217191	0
2	16215	16174.140202283287	1
2	16216	16175.362212810095	0
2	16230	16180.285336933653	1
2	16231	16180.556464005484	0
2	16235	16181.46362991013	1
2	16236	16182.018096267841	0
2	16245	16188.386472134799	1
2	16246	16189.144251154327	0
2	16255	16193.842157797189	1
2	16256	16194.581358770429	0
2	16275	16220.985668437969	1
2	16276	16222.855329051983	0
2	16280	16222.928638707722	1
2	16281	16224.709725740921	0
2	16300	16281.17157980938	1
2	16301	16282.177597300607	0
2	16325	16320.736481167663	1
2	16326	16321.532123574327	0
2	16345	16335.953022529346	1
2	16346	16336.473086124688	0
2	16360	16352.37906983656	1
2	16361	16352.962398471207	0
2	16370	16356.238386062751	1
2	16373	16356.512406149377	0
2	16405	16409.943887575055	1
2	16407	16410.499366911121	2
2	16408	16410.793818753159	1
2	16411	16412.618979058547	0
2	16415	16414.025929189275	1
2	16416	16414.380090309253	0
2	16430	16419.802772687022	1
2	16431	16419.84411025228	0
2	16445	16426.129855669016	1
2	16446	16427.197493104047	0
2	16455	16432.914966600773	1
2	16456	16433.40417753139	0
2	16475	16453.793933320904	1
2	16476	16453.966548200032	0
2	16535	16495.809469902074	1
2	16537	16496.067146461326	2
2	16540	16496.752417461411	1
2	16544	16496.883848238174	2
2	16545	16498.220106897526	1
2	16548	16499.989287014142	0
2	16555	16502.671334452505	1
2	16556	16503.448177392431	0
2	16580	16525.486328592369	1
2	16581	16526.539917191861	0
2	16605	16556.670836084696	1
2	16606	16556.906999696078	0
2	16620	16567.585052621574	1
2	16621	16568.173397802546	0
2	16645	16584.566194129356	1
2	16646	16585.101418219914	0
2	16665	16606.263282208327	1
2	16666	16606.562134737191	0
2	16685	16618.774908436035	1
2	16686	16619.582368837095	0
2	16690	16620.080721240148	1
2	16691	16621.132153844631	0
2	16700	16633.472458076751	1
2	16701	16635.031199919983	0
2	16740	16691.820207392327	1
2	16741	16692.842571883783	0
2	16745	16692.998770805901	1
2	16746	16694.241992351733	0
2	16750	16694.352986671202	1
2	16751	16695.679141172156	0
2	16755	16695.812004870685	1
2	16757	16696.422967018657	2
2	16758	16697.45764764747	1
2	16761	16699.072031521372	0
2	16795	16755.349122611687	1
2	16796	16755.446850764418	0
2	16815	16769.923006210516	1
2	16817	16770.799186491103	2
2	16818	16771.610664124364	1
2	16821	16773.543629665064	0
2	16835	16779.75371497102	1
2	16836	16781.359801714443	0
2	16850	16832.01773682147	1
2	16852	16832.740685584704	2
2	16853	16833.407700658132	1
2	16856	16834.771253812042	0
2	16880	16846.426686888721	1
2	16881	16846.595211721877	0
2	16885	16846.806257748794	1
2	16886	16848.455953948493	0
2	16890	16848.98778331412	1
2	16891	16850.005157435606	0
2	16895	16850.19992049184	1
2	16897	16851.204495804069	2
2	16898	16851.440055755446	1
2	16901	16852.969347471478	0
2	16970	16931.233001371019	1
2	16971	16932.746954736253	0
2	16977	16934.06595972265	1
2	16978	16934.678688243916	0
2	17005	16979.835482842529	1
2	17006	16980.308828611789	0
2	17010	16980.879251605441	1
2	17011	16981.81885908444	0
2	17015	16982.053340904813	1
2	17018	16983.092695870554	0
2	17025	16985.650577847298	1
2	17026	16986.533124916746	0
2	17030	16987.28245616978	1
2	17031	16987.758619196645	0
2	17050	17020.682968130361	1
2	17051	17021.465840666212	0
2	17105	17108.91100305955	1
2	17106	17109.691000623377	0
2	17115	17112.97730662879	1
2	17116	17113.719964906369	0
2	17120	17114.159186112161	1
2	17121	17115.168548218143	0
2	17125	17116.060845803233	1
2	17126	17116.736753650364	0
2	17130	17116.969202562243	1
2	17131	17118.183929819037	0
2	17160	17131.822295411146	1
2	17161	17133.346353926231	0
2	17170	17142.900673165772	1
2	17171	17143.795392282596	0
2	17175	17144.219232997008	1
2	17176	17145.738716756655	0
2	17280	17316.790069411251	1
2	17281	17316.923370439663	0
2	17310	17371.126388952604	1
2	17311	17371.700425836036	0
2	17330	17396.388507451282	1
2	17331	17398.314334862164	0
2	17335	17398.681548712956	1
2	17336	17399.755977737388	0
2	17350	17415.539333986772	1
2	17351	17416.225367412019	0
2	17365	17441.920477121262	1
2	17366	17443.243490119876	0
2	17370	17443.655921947686	1
2	17371	17444.756146867426	0
2	17390	17457.088730582673	1
2	17391	17457.291538407953	0
2	17432	17513.129344278316	1
2	17433	17513.499441014977	0
2	17450	17525.319924151459	1
2	17451	17526.66441210743	0
2	17455	17527.585584597034	1
2	17457	17528.442477447762	2
2	17458	17528.530801485777	1
2	17461	17530.094365679771	0
2	17465	17531.236427499157	1
2	17466	17532.028287942261	0
2	17470	17532.548057603515	1
2	17471	17533.675979794115	0
2	17475	17534.159977208834	1
2	17477	17534.679854999836	2
2	17478	17535.31412210457	1
2	17481	17537.191093632877	0
2	17490	17539.690938361947	1
2	17491	17541.349721112689	0
2	17500	17544.916817285367	1
2	17501	17544.974725000575	0
2	17540	17632.173711375372	1
2	17541	17632.702527204827	0
2	17555	17663.4143449666	1
2	17556	17663.721987145104	0
2	17595	17707.845410928245	1
2	17596	17708.03429626356	0
2	17630	17754.809415753607	1
2	17631	17755.669200567832	0
2	17650	17764.218617009543	1
2	17651	17764.617133631611	0
2	17660	17767.523963127448	1
2	17661	17768.045063015097	0
2	17685	17799.897025491752	1
2	17686	17799.992255446737	0
2	17715	17829.97448423974	1
2	17716	17830.215403164247	0
2	17725	17833.899577455309	1
2	17726	17834.014579190514	0
2	17740	17862.55478937717	1
2	17741	17862.584487097751	0
2	17800	17950.412515999619	1
2	17802	17950.703570911864	2
2	17804	17951.539123037988	3
2	17805	17951.712141309612	2
2	17808	17953.314048882694	1
2	17812	17954.37705071053	2
2	17813	17955.131207709135	1
2	17817	17956.068283491241	2
2	17818	17956.874524378897	1
2	17821	17958.291549765812	0
2	17850	17983.380160172731	1
2	17851	17984.657339394026	0
2	17865	17990.951137597875	1
2	17866	17991.81341340736	0
2	17905	18026.590043950893	1
2	17906	18026.600352000565	0
2	17915	18029.512820236011	1
2	17916	18030.107365776719	0
2	17925	18031.614504566955	1
2	17926	18033.198363443771	0
2	17932	18034.742080621175	1
2	17933	18035.032626990908	0
2	17955	18051.063045518869	1
2	17956	18051.604595044423	0
2	17995	18095.832068066806	1
2	17996	18096.059382379652	0
2	18005	18119.944414143008	1
2	18006	18120.401777562782	0
2	18095	18183.436557158599	1
2	18096	18184.203013209769	0
2	18160	18271.800397166522	1
2	18162	18272.03773289562	2
2	18163	18273.141821063888	1
2	18166	18275.107511146945	0
2	18180	18313.712590492693	1
2	18181	18315.13250199646	0
2	18200	18324.577078375562	1
2	18201	18325.493405380981	0
2	18215	18341.36520682909	1
2	18216	18342.747557419992	0
2	18225	18344.300111246052	1
2	18226	18345.429072889766	0
2	18285	18424.127321212709	1
2	18286	18424.50337268509	0
2	18312	18446.593735713049	1
2	18313	18446.920876359547	0
2	18320	18448.90815734386	1
2	18321	18450.703761869463	0
2	18325	18451.661048306153	1
2	18326	18452.119933435301	0
2	18330	18453.348760147399	1
2	18331	18453.833116958829	0
2	18345	18469.002033508578	1
2	18346	18470.691158510891	0
2	18365	18481.867042865469	1
2	18367	18483.192607275166	2
2	18368	18483.335184061144	1
2	18371	18485.177224505868	0
2	18420	18526.796345909897	1
2	18421	18527.540747574524	0
2	18425	18528.90040124127	1
2	18426	18529.186007687443	0
2	18435	18531.083902522779	1
2	18436	18532.790905771966	0
2	18465	18552.597735802855	1
2	18467	18553.226765933024	2
2	18468	18553.943774661479	1
2	18471	18555.170322807563	0
2	18480	18568.330655041962	1
2	18481	18568.451886671971	0
2	18545	18637.590984195539	1
2	18546	18638.72031135663	0
2	18565	18669.81363119145	1
2	18566	18670.674713764766	0
2	18570	18671.608708065482	1
2	18571	18672.661855374703	0
2	18605	18701.345037626452	1
2	18606	18702.807637640799	0
2	18620	18722.500364851957	1
2	18621	18722.758027216594	0
2	18625	18724.218218459966	1
2	18626	18724.232189025718	0
2	18640	18735.324576822244	1
2	18641	18736.935175288516	0
2	18655	18755.51918526897	1
2	18656	18756.08909389628	0
2	18665	18758.276544498342	1
2	18666	18759.490946777257	0
2	18700	18794.689921983285	1
2	18701	18795.240525588677	0
2	18705	18795.517359931863	1
2	18706	18797.018102641874	0
2	18710	18797.848631352736	1
2	18711	18798.55578818182	0
2	18730	18819.687310138747	1
2	18731	18819.935174243269	0
2	18740	18824.970925786655	1
2	18741	18825.233955608068	0
2	18775	18891.485938874915	1
2	18776	18892.978442169173	0
2	18785	18898.280990313018	1
2	18787	18899.167141606528	2
2	18788	18899.312130653817	1
2	18791	18901.171839789819	0
2	18835	18952.277447474905	1
2	18836	18952.862064179198	0
2	18840	18953.248821086089	1
2	18841	18954.705575931796	0
2	18870	18989.801648984087	1
2	18871	18990.730872765659	0
2	18895	19019.667348426053	1
2	18896	19020.081528137026	0
2	18910	19033.991556618774	1
2	18911	19034.744785476084	0
2	18925	19040.629199570886	1
2	18926	19041.912188706416	0
2	18945	19058.039855172796	1
2	18946	19058.545444798245	0
2	18975	19080.397861866851	1
2	18977	19080.965344194335	2
2	18979	19081.290540197658	3
2	18981	19081.343568316661	4
2	18982	19081.668627802944	3
2	18985	19083.154647023333	2
2	18988	19084.549616636438	1
2	18991	19086.327574701709	0
2	19015	19120.03018991738	1
2	19016	19120.476310779516	0
2	19035	19130.791717217074	1
2	19036	19131.465292211832	0
2	19040	19132.096462990296	1
2	19041	19132.910847123736	0
2	19045	19133.615090670146	1
2	19046	19134.285909126536	0
2	19070	19163.671993005801	1
2	19071	19164.325149805672	0
2	19090	19185.839491409395	1
2	19091	19187.106494221118	0
2	19100	19195.377385401531	1
2	19104	19195.878673317183	2
2	19106	19196.023848562828	3
2	19107	19196.070324806288	2
2	19111	19196.214741470772	3
2	19112	19197.809489899293	2
2	19115	19199.327635843099	1
2	19118	19200.865123116762	0
2	19122	19200.922606280449	1
2	19123	19202.554607964658	0
2	19145	19217.474379153201	1
2	19146	19217.702010201216	0
2	19150	19218.406554926642	1
2	19151	19219.179385402166	0
2	19155	19220.394483255701	1
2	19156	19221.148929993176	0
2	19175	19239.305964580436	1
2	19178	19239.708257257932	0
2	19185	19242.235994716756	1
2	19186	19242.431428557441	0
2	19190	19242.566351458448	1
2	19191	19243.734568404213	0
2	19200	19253.975182644076	1
2	19201	19254.807751194903	0
2	19210	19260.128067296963	1
2	19212	19260.446707166992	2
2	19213	19261.163442575091	1
2	19216	19262.52570807291	0
2	19270	19334.491099133396	1
2	19271	19335.021451419479	0
2	19280	19342.061228869038	1
2	19281	19342.244984827526	0
2	19285	19343.15312399525	1
2	19286	19343.904550725371	0
2	19290	19344.195692332768	1
2	19291	19345.774168468602	0
2	19295	19346.500219579721	1
2	19296	19347.175723423958	0
2	19300	19347.600523853105	1
2	19301	19348.604975775033	0
2	19310	19351.591660408516	1
2	19311	19352.777598474993	0
2	19390	19435.140943334746	1
2	19392	19435.286031003202	2
2	19393	19436.149123245469	1
2	19396	19437.594512561141	0
2	19405	19452.168083128614	1
2	19406	19453.220915583315	0
2	19420	19463.614838053149	1
2	19421	19465.498097019674	0
2	19475	19541.825903353743	1
2	19476	19542.810076292483	0
2	19485	19547.306862387524	1
2	19486	19548.161841691239	0
2	19490	19548.612566994862	1
2	19491	19549.378528385936	0
2	19495	19549.78677695322	1
2	19496	19550.867449022784	0
2	19515	19558.636959818565	1
2	19516	19559.109366097923	0
2	19535	19576.801907510821	1
2	19536	19578.400487013687	0
2	19540	19579.021787704127	1
2	19541	19579.67819442485	0
2	19555	19587.077590375965	1
2	19556	19588.71629143193	0
2	19560	19589.580309773788	1
2	19561	19590.040232918073	0
2	19605	19650.368362703926	1
2	19606	19651.21971256788	0
2	19665	19739.197037183234	1
2	19666	19740.141766652811	0
2	19685	19760.517755984622	1
2	19686	19761.829489152628	0
2	19705	19771.744936940513	1
2	19706	19772.02598538417	0
2	19745	19796.43539293482	1
2	19746	19797.882421456122	0
2	19750	19797.915709765724	1
2	19752	19798.735290239148	2
2	19753	19799.833717609973	1
2	19757	19799.864562016569	2
2	19758	19801.719407578589	1
2	19761	19803.163873305576	0
2	19765	19803.855449752595	1
2	19766	19805.090255269626	0
2	19780	19814.382642482999	1
2	19781	19816.307404271927	0
2	19795	19825.88056707089	1
2	19797	19827.006671571696	2
2	19798	19827.572762181454	1
2	19801	19828.989792923287	0
2	19805	19829.10979233504	1
2	19806	19830.354610724405	0
2	19825	19842.415302853989	1
2	19826	19843.745770334994	0
2	19830	19843.827467989117	1
2	19831	19845.613324521837	0
2	19835	19845.980818639783	1
2	19836	19847.167499215697	0
2	19840	19847.886544429869	1
2	19841	19848.77693150079	0
2	19855	19852.745474625792	1
2	19857	19852.808788310161	2
2	19860	19854.513854042816	1
2	19863	19856.173311378437	0
2	19870	19858.189196211719	1
2	19871	19859.816282967295	0
2	19875	19860.226155201705	1
2	19876	19861.320402297195	0
2	19900	19888.263759608165	1
2	19901	19890.101805298774	0
2	19945	19934.354093364504	1
2	19946	19934.971277977306	0
2	19985	19986.835810700872	1
2	19986	19988.01289683026	0
2	20005	20010.255206146954	1
2	20006	20011.960864274036	0
2	20010	20012.094808065699	1
2	20011	20013.610628005881	0
2	20030	20035.934264479982	1
2	20031	20036.988438244072	0
2	20060	20073.859067331944	1
2	20061	20075.265076043689	0
2	20090	20100.24850222742	1
2	20091	20101.010313209517	0
2	20132	20123.760325258745	1
2	20133	20125.242855006337	0
2	20137	20125.950083631225	1
2	20139	20126.221129859144	2
2	20141	20126.736710022566	3
2	20142	20127.014930287443	2
2	20145	20128.744845352575	1
2	20148	20130.119798561252	0
2	20152	20131.447776711847	1
2	20153	20131.839845674924	0
2	20160	20133.929580919332	1
2	20161	20134.700275152989	0
2	20205	20194.743945454738	1
2	20206	20196.012489055593	0
2	20210	20196.602988116237	1
2	20212	20196.65347964691	2
2	20214	20197.835865919595	3
2	20215	20197.94026713365	2
2	20218	20199.501826205601	1
2	20221	20201.348026512128	0
2	20225	20202.512386551232	1
2	20226	20203.118596460235	0
2	20310	20293.828832655981	1
2	20311	20293.838160072635	0
2	20380	20376.408984273945	1
2	20381	20377.055487687202	0
2	20400	20383.413334626118	1
2	20401	20384.245450192932	0
2	20405	20385.310837960145	1
2	20406	20385.706725002881	0
2	20410	20385.859729111527	1
2	20412	20386.296692824677	2
2	20413	20387.664252503645	1
2	20417	20389.241326429421	2
2	20418	20389.564107136112	1
2	20422	20389.582978797335	2
2	20424	20390.595853356345	3
2	20425	20391.251620354001	2
2	20428	20392.462647910286	1
2	20431	20393.883997170683	0
2	20470	20442.783933337688	1
2	20471	20442.825920649565	0
2	20475	20443.778446129087	1
2	20476	20444.278043291665	0
2	20480	20445.475494466306	1
2	20482	20445.682578748223	2
2	20483	20446.24738313122	1
2	20487	20446.648030416964	2
2	20489	20446.89249143113	3
2	20490	20447.600066058657	2
2	20493	20448.867650582402	1
2	20498	20450.579713901266	0
2	20502	20452.155024925657	1
2	20503	20452.171408749133	0
2	20575	20525.973097738338	1
2	20577	20526.098422311573	2
2	20579	20526.96846559926	3
2	20580	20526.986703022522	2
2	20584	20527.463689422193	3
2	20585	20528.632559191574	2
2	20588	20529.963662698817	1
2	20591	20531.686031116497	0
2	20610	20555.629359954527	1
2	20611	20555.923802274394	0
2	20635	20565.202266464447	1
2	20636	20566.516397637143	0
2	20705	20689.003919419917	1
2	20706	20690.340719395781	0
2	20715	20695.456652125106	1
2	20716	20696.122873533031	0
2	20755	20739.376060053395	1
2	20756	20739.725226477481	0
2	20770	20752.796712763662	1
2	20771	20753.83858961042	0
2	20775	20755.187453324539	1
2	20777	20755.324197309671	2
2	20778	20755.348265748545	1
2	20781	20757.224901301115	0
2	20790	20776.59550093194	1
2	20791	20777.241431092597	0
2	20820	20795.822495181452	1
2	20822	20796.122452350464	2
2	20824	20796.714411061697	3
2	20825	20797.201024187284	2
2	20829	20797.231107359043	3
2	20831	20797.816062241697	4
2	20833	20798.44802868525	5
2	20834	20798.545312416295	4
2	20837	20800.10796477359	3
2	20840	20802.061446787717	2
2	20843	20803.698737593481	1
2	20846	20805.039327945487	0
2	20850	20805.544547545389	1
2	20851	20806.698304345013	0
2	20860	20808.719581521066	1
2	20861	20809.991069264744	0
2	20885	20827.267599600656	1
2	20886	20828.284384609184	0
2	20895	20829.894929064631	1
2	20896	20831.239998025245	0
2	20925	20858.383184982002	1
2	20928	20859.884512245537	0
2	20932	20859.965072842773	1
2	20933	20861.137009309114	0
2	20940	20863.031357382423	1
2	20941	20864.132748763331	0
2	20970	20915.8129159727	1
2	20971	20916.115210531849	0
2	20975	20916.218942267965	1
2	20976	20917.791806786704	0
2	20980	20918.231311645548	1
2	20981	20919.660075088973	0
2	20985	20919.767979879177	1
2	20986	20921.465295722346	0
2	20990	20923.050167360699	1
2	20991	20923.446333917427	0
2	21005	20934.42950844172	1
2	21006	20935.696985908677	0
2	21020	20950.456207457495	1
2	21021	20950.864816683282	0
2	21025	20950.974065089212	1
2	21026	20952.82808321466	0
2	21035	20956.56635623914	1
2	21036	20956.981692347273	0
2	21040	20957.539340274585	1
2	21041	20958.22273645994	0
2	21095	21011.614571623946	1
2	21096	21012.49716174418	0
2	21115	21037.365780487225	1
2	21116	21039.110079874174	0
2	21120	21039.759429350504	1
2	21121	21040.371167506353	0
2	21155	21093.973874620457	1
2	21156	21095.718537787695	0
2	21165	21098.119769146084	1
2	21167	21099.06082240396	2
2	21168	21099.353820759591	1
2	21171	21101.05228749362	0
2	21180	21105.763816390116	1
2	21181	21106.45004929425	0
2	21195	21116.571480227014	1
2	21196	21117.935446715146	0
2	21210	21125.566136111464	1
2	21211	21126.139626021584	0
2	21230	21133.899715079926	1
2	21231	21134.479031570857	0
2	21245	21141.927652950764	1
2	21246	21142.295082827332	0
2	21270	21159.191553894599	1
2	21271	21159.841777831203	0
2	21300	21201.468773426456	1
2	21301	21202.42819488015	0
2	21305	21202.96293769734	1
2	21307	21203.804382910294	2
2	21308	21203.928918560259	1
2	21311	21205.918817232773	0
2	21340	21225.42678468022	1
2	21341	21226.030028956316	0
2	21345	21227.082607165825	1
2	21346	21227.517853459648	0
2	21350	21228.346767592249	1
2	21351	21229.137588676929	0
2	21355	21229.299109808441	1
2	21356	21230.979616079784	0
2	21380	21256.660614010942	1
2	21383	21258.491200610225	0
2	21395	21265.374785530808	1
2	21396	21266.853452304322	0
2	21405	21274.799916609873	1
2	21406	21275.317408768323	0
2	21420	21285.285501619537	1
2	21421	21285.529255812793	0
2	21425	21286.587854291821	1
2	21426	21286.908758123397	0
2	21440	21318.911890788252	1
2	21441	21319.773760278679	0
2	21452	21322.420480258055	1
2	21453	21323.143164317466	0
2	21465	21336.539664328094	1
2	21466	21337.178232169176	0
2	21485	21365.934350623417	1
2	21486	21367.283145828668	0
2	21545	21468.722040398424	1
2	21546	21469.296340645778	0
2	21580	21525.854951169666	1
2	21581	21526.168551385625	0
2	21600	21540.12409161232	1
2	21601	21540.527566119505	0
2	21615	21573.634654343027	1
2	21616	21573.649929750662	0
2	21620	21574.543999184839	1
2	21621	21574.935362080808	0
2	21630	21577.613364017554	1
2	21631	21578.769178954403	0
2	21650	21589.042795515844	1
2	21651	21589.333183516053	0
2	21660	21591.276092004776	1
2	21661	21592.75965366377	0
2	21675	21599.492235725096	1
2	21676	21599.801564206363	0
2	21690	21606.343720323789	1
2	21691	21607.659648712293	0
2	21705	21617.509363541732	1
2	21706	21617.961366500448	0
2	21710	21618.224896664994	1
2	21712	21618.409505551993	2
2	21713	21619.331282879713	1
2	21716	21620.895729216303	0
2	21730	21633.573287914283	1
2	21731	21634.073524340543	0
2	21745	21639.310670812527	1
2	21746	21639.969859068181	0
2	21760	21659.00471064644	1
2	21761	21660.443866671658	0
2	21775	21671.217202577847	1
2	21776	21671.767153027522	0
2	21785	21687.831743803796	1
2	21786	21688.08717729859	0
2	21815	21707.212798652668	1
2	21816	21707.470757880144	0
2	21840	21783.512569246139	1
2	21841	21784.88927869157	0
2	21845	21785.238063406705	1
2	21846	21786.781466671946	0
2	21885	21853.096358478841	1
2	21886	21853.661619050008	0
2	21895	21866.327536014653	1
2	21896	21867.218185583747	0
2	21905	21871.442336809967	1
2	21906	21873.138363313814	0
2	21915	21875.565025113701	1
2	21917	21875.836618539189	2
2	21918	21876.06860664985	1
2	21922	21876.778551996207	2
2	21923	21877.444963265721	1
2	21927	21877.484494414742	2
2	21928	21878.9153503058	1
2	21931	21880.41843321747	0
2	21935	21880.713341048579	1
2	21936	21881.700587291968	0
2	21970	21910.469242434142	1
2	21971	21911.333901771771	0
2	21975	21912.158878875921	1
2	21976	21912.852744807171	0
2	21980	21913.124490484222	1
2	21981	21914.301678510996	0
2	21985	21914.877486932081	1
2	21987	21915.333550180771	2
2	21988	21915.589275678115	1
2	21993	21917.010403832288	0
2	21997	21917.058376703454	1
2	21998	21918.871460699344	0
2	22002	21919.097472243502	1
2	22004	21920.369311859489	2
2	22005	21920.85159896897	1
2	22009	21921.192721314432	2
2	22010	21922.382149409185	1
2	22013	21924.33313223781	0
2	22050	21951.872019170896	1
2	22052	21952.410442178961	2
2	22053	21952.771536974292	1
2	22058	21954.533318289425	0
2	22070	21967.19354410225	1
2	22071	21968.712591383716	0
2	22170	22069.980174512054	1
2	22171	22070.092328149889	0
2	22185	22082.492451555659	1
2	22186	22083.494626507599	0
2	22205	22109.173616218747	1
2	22206	22110.390681329666	0
2	22315	22231.636292403645	1
2	22316	22231.693156271578	0
2	22370	22329.474152519796	1
2	22372	22329.576600591305	2
2	22373	22330.348857893984	1
2	22376	22331.648235858048	0
2	22420	22406.539602462728	1
2	22421	22407.903650455916	0
2	22435	22430.959904346815	1
2	22436	22431.409497627219	0
2	22480	22515.110425262933	1
2	22481	22516.039323825374	0
2	22560	22640.794900125468	1
2	22561	22641.464850626287	0
2	22572	22644.36553839958	1
2	22573	22644.632988568174	0
2	22577	22645.392198688521	1
2	22578	22645.833792157064	0
2	22582	22645.8990974307	1
2	22583	22647.290018320421	0
2	22590	22648.943553137615	1
2	22592	22649.01055563124	2
2	22593	22650.107772331091	1
2	22596	22652.015379907901	0
2	22600	22652.498064809439	1
2	22601	22653.654227152618	0
2	22625	22681.657735931331	1
2	22626	22681.815239559053	0
2	22650	22711.006659572256	1
2	22651	22711.9254931437	0
2	22700	22748.397663652824	1
2	22702	22748.424941720861	2
2	22703	22748.935997577097	1
2	22706	22750.636687471617	0
2	22730	22766.348934966685	1
2	22731	22767.562543491123	0
2	22775	22837.774410033997	1
2	22776	22837.81800814538	0
2	22780	22837.835858440388	1
2	22781	22839.701322424661	0
2	22795	22852.47933235252	1
2	22796	22853.001495860855	0
2	22800	22853.043095935239	1
2	22801	22854.842036454345	0
2	22805	22855.78595601805	1
2	22806	22856.713918339985	0
2	22810	22857.991108380291	1
2	22811	22858.349456345069	0
2	22865	22947.634461657941	1
2	22866	22948.860749756327	0
2	22895	22979.506810982058	1
2	22896	22980.560657145059	0
2	22910	22989.818910567147	1
2	22911	22990.579770896459	0
2	22930	23014.713566600085	1
2	22931	23015.021036236317	0
2	22955	23050.866327813336	1
2	22956	23052.258140793745	0
2	23030	23143.504146741061	1
2	23031	23143.913637088167	0
2	23035	23144.376803676319	1
2	23036	23145.273971019054	0
2	23110	23253.628638446408	1
2	23111	23254.470142693836	0
2	23115	23254.851779965093	1
2	23116	23256.354527871329	0
2	23120	23257.5888345205	1
2	23121	23257.869251542743	0
2	23130	23264.401824700418	1
2	23131	23264.611310004209	0
2	23180	23310.227112043401	1
2	23181	23311.841199769299	0
2	23200	23357.053802689193	1
2	23203	23358.284432831297	0
2	23210	23360.975037939838	1
2	23211	23361.260932917225	0
2	23225	23380.86771108005	1
2	23226	23381.49066419922	0
2	23255	23408.748576803458	1
2	23257	23410.240876332933	2
2	23258	23410.351693345695	1
2	23261	23411.847887277319	0
2	23265	23411.963726100835	1
2	23267	23412.51838761678	2
2	23268	23413.554121085531	1
2	23271	23414.962184807188	0
2	23285	23434.542557677921	1
2	23286	23434.999483778164	0
2	23315	23466.910143373432	1
2	23316	23467.248604364228	0
2	23340	23514.643045852959	1
2	23341	23515.684789210989	0
2	23345	23515.988287858485	1
2	23347	23516.850099672541	2
2	23348	23517.026442789904	1
2	23351	23518.49541539593	0
2	23425	23601.521411784059	1
2	23426	23601.688829029522	0
2	23450	23658.477613789788	1
2	23451	23659.901689856062	0
2	23515	23756.921742396432	1
2	23516	23758.823285583375	0
2	23575	23877.871660336926	1
2	23577	23877.959093587383	2
2	23578	23879.149393088559	1
2	23581	23880.502879673804	0
2	23600	23920.527101324685	1
2	23601	23921.491866984846	0
2	23620	23947.541313306892	1
2	23621	23948.096005964137	0
2	23655	24000.455785581444	1
2	23656	24001.848380698886	0
2	23690	24050.200812792806	1
2	23691	24051.037999657282	0
2	23750	24115.140595669521	1
2	23751	24115.587195362761	0
2	23765	24127.497579621996	1
2	23768	24128.63220219657	0
2	23772	24128.759188004756	1
2	23773	24130.517477386521	0
2	23777	24130.898487305871	1
2	23778	24131.936487603077	0
2	23785	24133.598649350639	1
2	23787	24134.483478784423	2
2	23788	24134.983212493809	1
2	23792	24135.805333553172	2
2	23794	24135.82616499533	3
2	23795	24136.790559478181	2
2	23798	24138.384574724997	1
2	23801	24139.657728533524	0
2	23835	24167.92225638985	1
2	23836	24169.584793882395	0
2	23860	24193.057623727393	1
2	23861	24194.510277364158	0
2	23865	24194.947945477851	1
2	23866	24196.350527433433	0
2	23885	24214.37442714419	1
2	23886	24215.614548064936	0
2	23900	24226.734014139555	1
2	23901	24228.296897378368	0
2	23905	24229.445717469816	1
2	23906	24230.138626266634	0
2	23935	24263.268532587211	1
2	23936	24264.177052339601	0
2	23960	24292.750769141396	1
2	23962	24294.050770379203	2
2	23963	24294.525575470429	1
2	23967	24295.098043719752	2
2	23970	24296.154777976003	1
2	23974	24297.854712291665	2
2	23975	24297.953028385405	1
2	23978	24299.184527238336	0
2	23985	24302.24466785164	1
2	23986	24302.251294569735	0
2	24025	24375.33518128855	1
2	24026	24375.945318866405	0
2	24030	24376.402124371696	1
2	24031	24377.7362380401	0
2	24075	24416.75718987146	1
2	24076	24418.256579670771	0
2	24080	24419.629061527967	1
2	24081	24419.748861851259	0
2	24140	24497.863941535115	1
2	24141	24498.394038608512	0
2	24155	24503.463579777257	1
2	24156	24504.410368496789	0
2	24160	24505.060940742366	1
2	24161	24505.733836256205	0
2	24180	24519.93251049384	1
2	24181	24521.282006381924	0
2	24200	24552.226516516006	1
2	24201	24552.425980443872	0
2	24215	24556.572298419231	1
2	24216	24557.102779926835	0
2	24225	24567.444064850028	1
2	24226	24567.637308120278	0
2	24230	24568.918732355567	1
2	24231	24569.034733434131	0
2	24235	24569.682016079381	1
2	24236	24570.34980855949	0
2	24240	24571.233514238357	1
2	24242	24572.007775030101	2
2	24243	24572.324903755558	1
2	24246	24574.01206259608	0
2	24280	24604.467319609265	1
2	24281	24605.415236838848	0
2	24300	24618.769463900998	1
2	24301	24619.40351939116	0
2	24305	24620.379237224179	1
2	24306	24620.932580313723	0
2	24315	24628.459849764148	1
2	24316	24628.798009924181	0
2	24355	24665.629666147707	1
2	24356	24666.250428080975	0
2	24360	24666.539352357285	1
2	24361	24667.749420427388	0
2	24375	24684.484452148	1
2	24376	24685.637276558379	0
2	24390	24689.325335249263	1
2	24391	24690.738694999397	0
2	24425	24744.253916853572	1
2	24427	24744.314888912321	2
2	24428	24745.478642225281	1
2	24431	24747.02085276378	0
2	24435	24748.069055654916	1
2	24436	24748.757802253418	0
2	24440	24748.941382565541	1
2	24441	24750.603985838421	0
2	24485	24783.305803870041	1
2	24487	24784.453028072589	2
2	24488	24784.790730459966	1
2	24492	24785.144454402788	2
2	24493	24786.545660219878	1
2	24497	24786.607823189452	2
2	24498	24787.808737502225	1
2	24501	24789.432646558039	0
2	24505	24790.463362159257	1
2	24506	24790.633457971715	0
2	24525	24811.241828887172	1
2	24527	24812.389859500842	2
2	24528	24812.709098469552	1
2	24531	24814.327867357891	0
2	24540	24825.381317325583	1
2	24541	24825.815910503637	0
2	24545	24826.075055755786	1
2	24548	24827.430995105389	0
2	24575	24856.244185474658	1
2	24576	24856.423546147396	0
2	24590	24860.358965972866	1
2	24591	24861.207616977443	0
2	24620	24887.806132857811	1
2	24621	24888.936744762096	0
2	24650	24914.366040856579	1
2	24651	24915.278424373923	0
2	24655	24915.712071282292	1
2	24656	24916.64530616468	0
2	24670	24936.635787851428	1
2	24671	24937.611676157665	0
2	24680	24940.179830576401	1
2	24682	24940.393763090264	2
2	24683	24940.918317438875	1
2	24686	24942.414796242331	0
2	24690	24942.444061851757	1
2	24691	24943.755715621848	0
2	24820	25108.835481387607	1
2	24821	25110.149446953123	0
2	24825	25111.581877908542	1
2	24826	25111.852310552856	0
2	24835	25115.352260215828	1
2	24838	25116.507896094685	0
2	24865	25145.549316568426	1
2	24866	25146.440296348762	0
2	24875	25153.779035817258	1
2	24877	25154.549754581127	2
2	24878	25154.801529943162	1
2	24881	25156.77912621867	0
2	24900	25172.397770692717	1
2	24901	25172.78860882918	0
2	24915	25180.731295173271	1
2	24916	25180.927754394454	0
2	24942	25191.928374073662	1
2	24943	25193.010065103563	0
2	25025	25261.706372921562	1
2	25026	25262.080266071405	0
2	25030	25263.641279639246	1
2	25031	25263.765728812027	0
2	25035	25264.4018052955	1
2	25036	25265.429215104054	0
2	25085	25317.586525890324	1
2	25086	25318.183702306858	0
2	25115	25380.46782486506	1
2	25116	25380.529331047833	0
2	25140	25400.834068367348	1
2	25142	25400.938980344666	2
2	25143	25401.875378572621	1
2	25147	25402.914700199008	2
2	25148	25403.287182324991	1
2	25151	25404.907816825301	0
2	25160	25425.527611132757	1
2	25161	25426.616292159564	0
2	25170	25431.047525086233	1
2	25171	25431.470437722134	0
2	25185	25450.464603423693	1
2	25186	25451.787988545889	0
2	25220	25533.439975729851	1
2	25223	25534.709369071369	0
2	25227	25535.651919196947	1
2	25228	25535.940727328305	0
2	25240	25543.682820652232	1
2	25241	25544.71101310969	0
2	25300	25611.504963218773	1
2	25301	25612.983769487732	0
2	25320	25638.718018414333	1
2	25321	25640.142767684455	0
2	25330	25641.731834866523	1
2	25332	25642.072879161846	2
2	25333	25643.606661692555	1
2	25336	25645.480156552899	0
2	25355	25656.752228005336	1
2	25356	25657.319294967059	0
2	25375	25670.165208962533	1
2	25376	25671.699979698188	0
2	25425	25741.24563096744	1
2	25427	25741.554545734721	2
2	25428	25742.065676872344	1
2	25431	25743.348160743998	0
2	25470	25801.651651248978	1
2	25471	25802.268910863213	0
2	25485	25823.847432889941	1
2	25487	25823.863755028249	2
2	25488	25824.959230589703	1
2	25493	25826.784960848488	0
2	25542	25903.335465722595	1
2	25543	25903.669826325684	0
2	25567	25920.262380336969	1
2	25568	25920.272913418615	0
2	25572	25921.559217494342	1
2	25573	25922.136615204157	0
2	25590	25937.502941212023	1
2	25591	25937.872208108685	0
2	25605	25942.89619595947	1
2	25606	25944.437955680696	0
2	25620	25951.368661821841	1
2	25621	25951.700644828001	0
2	25645	25968.330403260263	1
2	25646	25968.965312529764	0
2	25670	25982.587911037172	1
2	25672	25983.534869593082	2
2	25673	25984.248452741368	1
2	25677	25984.487615671047	2
2	25678	25986.166436192109	1
2	25683	25988.020723280771	0
2	25687	25989.498363199029	1
2	25688	25989.65556067293	0
2	25720	26035.47492322794	1
2	25721	26036.070268132826	0
2	25755	26061.242018117141	1
2	25756	26062.872220828089	0
2	25765	26077.87521101151	1
2	25767	26078.164902571166	2
2	25768	26079.018004722701	1
2	25772	26080.399057593118	2
2	25773	26080.520733410114	1
2	25776	26082.005477566825	0
2	25780	26083.45597196314	1
[...]
6	15175	15109.762392786458	3.800321905659
6	15245	15208.831079385299	4.277689857035
6	15290	15252.659093384145	1.364347294345
6	15295	15270.785701810515	1.520557553135
6	15330	15308.03606353122	1.873458094895
6	15335	15311.582472974709	1.294788864441
6	15355	15321.539158053407	3.950543169267
6	15375	15353.937235832176	7.525338812315
6	15437	15392.36108091984	4.3664219405
6	15470	15411.613392296927	5.228187749611
6	15479	15422.82428978851	1.692837239429
6	15505	15437.183473503527	1.526442503184
6	15565	15488.997987612081	1.752786302008
6	15602	15532.453322316445	5.376612690657
6	15635	15554.654871241269	1.835150467791
6	15662	15606.77287294642	1.630129440129
6	15847	15811.74759924816	1.408516311459
6	15912	15854.459111167386	12.308640229062
6	15937	15862.988929803378	1.62343706094
6	16015	15960.389020645599	1.560350625962
6	16027	15969.870485917724	3.896940893374
6	16055	15987.723237660569	9.404768824944
6	16060	16000.539128419056	1.200977589935
6	16090	16022.885437389315	2.168822874984
6	16100	16047.912975930511	1.366486257315
6	16144	16134.714921492987	6.093242476383
6	16164	16141.223606688619	5.154670896826
6	16175	16151.781790678459	1.752522612922
6	16185	16157.265874193116	2.517204320562
6	16205	16166.368380242455	2.566930277569
6	16320	16316.366761653762	2.517723205849
6	16362	16352.962398471207	1.724244472571
6	16382	16360.184280810934	3.898713645545
6	16385	16361.562733212356	4.117107006056
6	16395	16374.092965777227	1.308365485258
6	16409	16410.793818753159	1.492193832807
6	16432	16419.84411025228	1.322909867764
6	16495	16463.169831795586	1.826398880407
6	16510	16477.314384947884	1.619968851656
6	16557	16503.448177392431	7.161237125654
6	16565	16513.776325564273	1.728342878446
6	16600	16546.446938243929	1.318303287216
6	16637	16579.878002721114	1.312573159486
6	16640	16581.256750108158	1.515010435055
6	16715	16646.908708228311	1.585704768263
6	16775	16737.577311032342	1.80656608399
6	16837	16781.359801714443	1.691481698863
6	16925	16870.800063912011	7.332713622607
6	16945	16892.538164581348	5.280913976072
6	16950	16900.420279034665	1.43251647912
6	16985	16937.356898096529	3.480548399604
6	16990	16959.099490912126	1.468060607277
6	17007	16980.308828611789	3.251104441918
6	17027	16986.533124916746	3.983028439735
6	17052	17021.465840666212	1.393392230943
6	17072	17054.185651763333	1.308336466923
6	17085	17059.892348476276	7.008299627311
6	17090	17081.185732484405	1.752307225578
6	17100	17094.698506261777	2.010205840582
6	17107	17109.691000623377	1.613423272036
6	17117	17113.719964906369	1.901892404631
6	17162	17133.346353926231	2.41395321664
6	17195	17162.490376905454	1.304075736925
6	17220	17226.467434546937	1.690344838798
6	17230	17247.346764660145	1.486361330748
6	17250	17282.192191139804	1.409044086002
6	17260	17292.329833411424	1.799495010078
6	17290	17325.768747833317	1.374842435494
6	17385	17455.91320899791	1.393455860019
6	17400	17461.282577515756	1.645595191419
6	17405	17465.652469618598	1.490186780319
6	17440	17517.057378569061	4.721460661008
6	17565	17666.949822869421	2.509588488404
6	17580	17677.505318617339	1.933011706087
6	17590	17703.789668074811	1.698979891837
6	17645	17761.520598766049	3.853294479043
6	17680	17798.086962736185	1.863019751571
6	17687	17799.992255446737	1.333704325557
6	17695	17803.280116402407	1.683601608425
6	17755	17872.048077296781	1.756480423361
6	17765	17904.371136198797	1.985254537128
6	17785	17934.577949570698	2.178463655857
6	17806	17951.712141309612	1.378626838513
6	17867	17991.81341340736	5.28205117176
6	17880	18009.165465528596	1.583714663982
6	17895	18021.491018568193	5.387389913703
6	17944	18037.875553339095	14.857895111201
6	17947	18039.381624361248	9.010061498881
6	17950	18040.798737801359	3.344272215208
6	17965	18055.125664981623	1.722066774386
6	17970	18062.735475317894	1.54796682857
6	17997	18096.059382379652	1.519105827622
6	18050	18152.986511144301	6.250201889073
6	18055	18156.348271663019	1.437089947425
6	18065	18161.688245882357	1.374302442744
6	18070	18172.337123240141	1.946976288036
6	18075	18174.488133908055	1.295514800586
6	18140	18250.37871237565	1.595969360322
6	18190	18319.357115088493	7.521368726828
6	18227	18345.429072889766	4.331115065142
6	18245	18360.996543708025	1.309592146799
6	18255	18379.180804499909	4.047026599223
6	18270	18408.359658213858	1.397740289196
6	18287	18424.50337268509	1.75432114806
6	18322	18450.703761869463	4.249476163501
6	18385	18501.332798151701	1.663437074237
6	18405	18512.59274628334	2.801366065665
6	18450	18537.697168544127	2.572378479328
6	18469	18553.943774661479	1.962592402659
6	18547	18638.72031135663	3.458996376414
6	18595	18684.879501061338	3.189837053881
6	18667	18759.490946777257	5.167691137828
6	18680	18782.90768131843	1.299516930617
6	18830	18939.04092415472	4.303873289068
6	18872	18990.730872765659	1.381194942072
6	18897	19020.081528137026	1.224164186791
6	18940	19049.088613117297	1.73573537186
6	18970	19078.821181308425	1.978428321583
6	18983	19081.668627802944	1.549353506789
6	19005	19103.252920587099	1.454302945733
6	19017	19120.476310779516	1.534194177203
6	19030	19124.698674490851	2.952983146276
6	19037	19131.465292211832	10.952259115349
6	19137	19209.227279981592	13.425208165674
6	19147	19217.702010201216	10.104571074454
6	19165	19229.067547757773	1.869452563114
6	19187	19242.431428557441	2.928393674308
6	19230	19293.710275122834	1.673845766298
6	19250	19308.166303696735	1.621166082658
6	19255	19311.693380261726	1.378152228892
6	19340	19390.533199826568	1.244247372635
6	19345	19392.912009815022	1.639978949167
6	19470	19531.42972193989	1.949902269989
6	19517	19559.109366097923	4.071669043584
6	19585	19609.749261931247	1.393130900525
6	19645	19694.713865131556	1.833503971765
6	19655	19728.160555760791	3.094905540599
6	19675	19743.101891871515	5.931183667494
6	19680	19758.730357231988	1.221400445513
6	19687	19761.829489152628	1.326255983487
6	19707	19772.02598538417	2.215377018028
6	19725	19778.355166253935	1.491913530636
6	19730	19780.157049755513	1.280288440734
6	19799	19827.572762181454	1.975734956935
6	19817	19833.623300791189	2.16264800992
6	19820	19835.272412626102	3.684044092571
6	19872	19859.816282967295	6.380463002378
6	19885	19875.119325221306	1.746459700167
6	19902	19890.101805298774	1.995204708911
6	19910	19893.001517249829	2.570185308035
6	19940	19931.520290892588	1.815792154521
6	19947	19934.971277977306	1.569080352597
6	19975	19979.31911698849	4.123538930758
6	19995	19991.002663357941	1.28668719735
6	20000	19995.139842241098	1.200195005536
6	20110	20110.091717176346	3.562532198209
6	20125	20122.39711714945	2.783087112823
6	20162	20134.700275152989	11.144952092165
6	20200	20187.90975546277	1.800275387615
6	20257	20233.16229990006	1.269352360815
6	20262	20235.055167042022	2.940927356294
6	20265	20237.038444982213	6.962914043112
6	20275	20243.742306095475	3.535906231902
6	20300	20272.004753555956	1.321370536089
6	20402	20384.245450192932	3.014802936437
6	20525	20460.780751948787	2.812732385245
6	20530	20463.000245621054	12.492346114772
6	20540	20469.537706848528	4.729497467106
6	20547	20483.40479424205	1.217319907993
6	20550	20485.127122322846	2.271034964662
6	20581	20526.986703022522	2.071413226342
6	20637	20566.516397637143	12.27308642463
6	20655	20626.588994041342	1.981693934277
6	20697	20676.686513326073	2.631995921115
6	20700	20678.304868039058	1.620003345336
6	20805	20784.894167829009	1.492053874582
6	20897	20831.239998025245	2.831180607378
6	20905	20834.664427337593	2.906987714865
6	20915	20847.423948102591	1.917350962944
6	20920	20856.254478619379	1.24400199838
6	20942	20864.132748763331	4.475848938058
6	20950	20867.771027872779	2.24744676941
6	21169	21099.353820759591	2.284864921779
6	21205	21123.379979292151	1.328511706181
6	21240	21137.726165873973	1.57248874588
6	21255	21145.514330049279	1.331715408568
6	21260	21152.806850787155	1.336646478437
6	21265	21155.34638518828	1.205901028961
6	21320	21209.277277438566	3.187112271169
6	21372	21254.08590467913	1.968208945915
6	21390	21262.40497529411	8.576127544834
6	21435	21299.254804116546	1.34058372546
6	21454	21323.143164317466	2.810097192564
6	21460	21326.833747773215	5.940733543479
6	21475	21345.217051576764	1.435784720629
6	21570	21515.291089081619	1.661391215367
6	21617	21573.649929750662	1.301797743328
6	21652	21589.333183516053	1.844524387829
6	21700	21611.304842689575	2.120503762886
6	21747	21639.969859068181	1.756421140395
6	21795	21690.963127245284	1.358006977662
6	21800	21693.403978945255	1.568030591682
6	21810	21703.360206626822	1.588723945618
6	21860	21826.774376607372	1.635030570999
6	21865	21835.382232627275	1.910411727801
6	21919	21876.06860664985	1.682025321917
6	21960	21900.241330183967	1.888250587322
6	22020	21927.407710377927	11.615922611869
6	22065	21957.279243655186	6.099118990637
6	22072	21968.712591383716	1.580514267087
6	22095	21996.157743374459	1.495171553642
6	22105	22000.6912529324	1.541639245488
6	22215	22130.134283897588	1.595730686001
6	22240	22148.165510359167	1.961355166186
6	22317	22231.693156271578	1.792346716486
6	22335	22278.806224530914	1.345231411979
6	22374	22330.348857893984	1.281981835328
6	22437	22431.409497627219	1.705447338149
6	22500	22549.907827470673	1.666566520557
6	22545	22620.147557837197	1.491599531099
6	22594	22650.107772331091	6.094812390819
6	22615	22663.968314070083	1.885635917634
6	22695	22747.57190081426	7.789979426969
6	22704	22748.935997577097	1.299441353045
6	22740	22773.579557306739	1.761726617999
6	22777	22837.81800814538	1.212208205275
6	22845	22904.761817221471	2.258351830709
6	22860	22930.917346993097	5.574375292534
6	22877	22960.225787499235	1.923740909807
6	22885	22964.066970975408	5.169022091148
6	22905	22986.766537277283	1.399893080257
6	22920	23001.656988946462	1.467839686386
6	22950	23038.651839275693	1.32626927793
6	22970	23075.584178348115	1.884260989353
6	23005	23108.565862342106	7.991765916512
6	23015	23120.009537647736	1.545721318759
6	23020	23126.58404227741	1.365323826112
6	23052	23150.729300481007	1.797387647815
6	23060	23156.967195817667	9.738568604623
6	23095	23211.156597404801	3.2847151949
6	23170	23304.109961131456	3.567454815652
6	23204	23358.284432831297	1.417737600766
6	23212	23361.260932917225	6.946502976452
6	23227	23381.49066419922	1.996838472597
6	23250	23407.78597389875	1.772076000646
6	23259	23410.351693345695	1.941787875816
6	23300	23450.505473379641	1.830291610397
6	23362	23523.424045285649	1.392470944114
6	23365	23524.716966014236	2.287724702435
6	23375	23542.300314177565	1.878023423254
6	23380	23550.158629110747	1.763421923108
6	23385	23556.942735153575	1.904505089112
6	23395	23561.659856202954	1.584837298095
6	23445	23649.802876142549	1.313249518909
6	23452	23659.901689856062	1.833755913936
6	23465	23668.059670134848	2.18707934177
6	23470	23693.63552035602	1.622429652885
6	23480	23703.687551657004	6.276803106487
6	23535	23779.987892839111	1.956284575164
6	23545	23785.33036467374	4.651717649919
6	23570	23861.430406756538	1.360654976591
6	23715	24066.048795631956	4.175168896532
6	23735	24097.023749742952	1.442491772212
6	23752	24115.587195362761	1.571967406757
6	23789	24134.983212493809	6.776279507772
6	23832	24167.671977315049	2.387882855066
6	23837	24169.584793882395	2.39886293513
6	23862	24194.510277364158	1.624933309481
6	23887	24215.614548064936	3.615262752772
6	23915	24245.79712844284	1.987462300621
6	23920	24248.403436750522	1.881018329412
6	23937	24264.177052339601	2.99048164705
6	23987	24302.251294569735	6.289647649585
6	24005	24343.79452931231	1.546306969598
6	24040	24381.079088378581	3.135504464174
6	24050	24402.535004046628	2.45493054993
6	24065	24413.796482143488	6.233198230278
6	24077	24418.256579670771	1.667379866913
6	24095	24431.810940030167	1.293916710652
6	24125	24461.637186854516	2.354856955938
6	24150	24502.720993870854	5.817066377172
6	24217	24557.102779926835	4.106643280234
6	24270	24599.279278428953	1.743293846585
6	24275	24601.202107557494	1.538596982509
6	24295	24617.953743517157	1.547064404562
6	24325	24633.171892249219	1.992377224192
6	24340	24647.278017174207	4.556329703808
6	24357	24666.250428080975	1.641663200036
6	24370	24671.105911242446	2.859101017944
6	24450	24753.542072210662	2.533519767991
6	24520	24803.97856535042	1.741181018017
6	24555	24830.225990835573	3.586843771824
6	24587	24859.74421044444	9.585671301004
6	24592	24861.207616977443	4.288341119007
6	24600	24870.896562110672	1.511443124153
6	24615	24886.554675860392	1.226387719251
6	24665	24934.091502583699	1.838833274134
6	24672	24937.611676157665	1.968831338547
6	24684	24940.918317438875	2.789372357467
6	24700	24956.481880962418	1.694898692891
6	24717	24988.846900012081	1.389352039061
6	24720	24990.742826864978	2.801396710812
6	24822	25110.149446953123	1.882067638449
6	24845	25119.527708002654	3.869565837312
6	24850	25129.811732355986	1.882836221159
6	24867	25146.440296348762	2.403025028881
6	24902	25172.78860882918	1.782407996245
6	24917	25180.927754394454	1.667655251548
6	24955	25197.888530401224	9.527452321922
6	24995	25227.354731240174	2.433891101443
6	25015	25253.92208715198	1.303073816933
6	25075	25311.141524611911	1.887960893288
6	25087	25318.183702306858	2.128563959742
6	25105	25349.203563986786	1.304741567932
6	25135	25397.658728179923	1.536987066828
6	25210	25510.183151196331	1.934954083897
6	25235	25539.731994113867	6.050728151854
6	25242	25544.71101310969	1.99558798112
6	25265	25565.676360674833	3.549578533571
6	25295	25607.490868369718	1.332542816922
6	25315	25632.772274536807	12.44245013176
6	25334	25643.606661692555	2.837290836958
6	25345	25651.553172724263	1.44073037114
6	25350	25653.472015387941	1.607570388354
6	25377	25671.699979698188	1.700330009311
6	25390	25679.142991175895	3.548944850161
6	25400	25698.782750247059	1.319848868437
6	25440	25747.466899009045	1.796341042407
6	25450	25760.666088858016	4.082425687058
6	25500	25829.929884180822	6.439232837036
6	25515	25859.808341010299	1.89678348843
6	25560	25915.147262653904	12.098990014828
6	25580	25925.30062737623	6.231270086188
6	25607	25944.437955680696	2.174606861417
6	25622	25951.700644828001	1.818959487975
6	25695	25993.582136617316	6.605546122319
6	25750	26057.170724806049	2.506980529553
6	25757	26062.872220828089	1.649765409529
6	25769	26079.018004722701	1.202072744444
6	25804	26090.28836313949	1.545603651367
6	25827	26098.435543581258	7.143390720875
6	25875	26127.898664183603	1.95360335688
6	25920	26172.078079126066	1.879606005982
6	25935	26220.129516318976	1.710774157196
6	25967	26263.666735233674	1.315533661656
6	25990	26283.972567638928	1.516378058866
6	26005	26291.67173458203	5.505949207132
6	26035	26314.647397308151	1.683190619759
6	26065	26335.743808552412	1.300165537186
6	26087	26367.545372556185	1.398967055045
6	26097	26370.834450473361	3.827776325152
6	26105	26373.596283466094	1.99702111047
6	26112	26395.933047149575	1.963645408861
6	26115	26397.93080465073	3.01929017765
6	26147	26418.429165997193	1.988877836615
6	26150	26419.704169201315	2.342022210412
6	26255	26534.151678576784	4.49799608573
6	26270	26578.465512428663	1.384745738097
6	26287	26588.740333663961	1.824193098769
6	26330	26623.748093220062	1.369863592461
6	26355	26653.32297931757	1.704603829049
6	26370	26665.938826627089	2.710550807105
6	26380	26688.146650031144	1.560308187269
6	26400	26702.34005697247	1.914313424149
6	26420	26718.510208123447	1.872106727585
6	26425	26728.785165065011	1.418394923396
6	26450	26750.480457899333	2.083785602171
6	26487	26773.375913768207	1.936864637397
6	26497	26776.49742370913	2.329197680707
6	26510	26784.975142807959	1.219009332918
6	26535	26816.636508390534	1.431231635064
6	26600	26886.096311613105	1.358181965537
6	26617	26893.21069186717	1.94375645667
6	26630	26900.661983324309	2.510955212583
6	26635	26904.521607438953	1.481234780513
6	26664	26942.99660231399	6.944027430432
6	26675	26978.291539511908	1.686083879136
6	26692	26984.167010415621	5.637140351925
6	26765	27042.858896136588	1.740111283772
6	26802	27070.67007186512	1.871098193713
6	26867	27124.436315187366	1.428856774606
6	26887	27167.421090017496	1.687650887482
6	26910	27194.298858576935	7.192675243386
6	26947	27233.419577027388	1.911221192414
6	26977	27255.132541403601	1.878472141249
6	27010	27306.938087220787	3.52394115567
6	27024	27319.119075784828	3.105887500846
6	27046	27325.776426203545	10.548468774557
6	27059	27330.147179764878	10.181732495504
6	27070	27337.326122054674	1.237004271895
6	27115	27412.611539192335	1.832799788192
6	27145	27438.751430243524	2.354056318725
6	27152	27439.962446208272	1.210552387312
6	27210	27463.94206863794	9.435882507111
6	27240	27488.733825825728	1.60722308103
6	27255	27502.099699464947	1.225555426255
6	27325	27572.34700572803	1.618591201864
6	27330	27576.147992952823	1.764071135223
6	27372	27599.99810072658	1.584054617584
6	27420	27654.026476795469	1.755656020343
6	27536	27738.722680019989	1.781320503727
6	27555	27747.76663834828	9.846148957352
6	27572	27760.416088811363	1.874488402344
6	27615	27806.144138971539	7.025338962097
6	27685	27845.743314554816	4.378383782325
6	27707	27865.123764361084	1.977810176089
6	27725	27887.927658673068	1.767189754918
6	27740	27907.314200046138	4.487704669236
6	27790	27959.570975877808	5.480060616353
6	27822	27985.811225602331	1.99088246692
6	27855	28021.073397142989	2.940719546475
6	27920	28109.741138321101	6.904481357374
6	27952	28131.02856166237	1.73072639592
6	28010	28186.604279594527	6.687276396957
6	28032	28208.478997459116	1.503624977916
6	28040	28211.498980576958	1.725129790477
6	28060	28233.14805129751	6.103135695498
6	28085	28266.324493505043	7.184003972505
6	28102	28282.424066727562	2.763579071984
6	28120	28298.890845870157	1.92258018814
6	28139	28319.049616991259	1.534726828337
6	28155	28324.553373568221	5.001251041651
6	28210	28351.568751022056	5.221369551005
6	28257	28379.53390280402	4.010515764211
6	28270	28383.703695065244	2.269087177041
6	28315	28446.80742733115	1.763872600719
6	28325	28461.476391113631	1.929087599367
6	28345	28483.350392364879	4.593782877876
6	28357	28502.086801664894	1.815159528889
6	28395	28529.593643578057	1.256113824274
6	28410	28548.906911719452	1.59913885007
6	28459	28593.151719794522	1.915020082518
6	28462	28594.884601120378	3.351741585016
6	28465	28596.647324853118	4.157979427955
6	28470	28605.100032503214	1.429912974313
6	28490	28635.107674126776	1.400125334412
6	28495	28639.241707302109	1.557954919338
6	28512	28653.940969281656	4.176837764494
6	28515	28655.212073079323	1.909889490421
6	28550	28679.730924647572	1.759966144525
6	28582	28728.790674001934	5.724164458336
6	28630	28777.796965760767	4.401926122886
6	28642	28798.084150854691	1.344757564253
6	28660	28808.300399281173	1.754242133163
6	28675	28822.539476522119	3.633371386795
6	28742	28871.931514054026	7.576189367296
6	28757	28880.114780902609	2.512860431169
6	28817	28957.38279543023	1.850465944223
6	28875	29035.349159354785	1.6671391109
6	28884	29043.858570287863	1.447703605145
6	28905	29067.271244496512	1.821340454929
6	28915	29081.25316083791	2.556768255335
6	28955	29146.287403459403	1.462964058667
6	29024	29188.846887326215	1.794966862909
6	29036	29192.121013526406	3.862301472429
6	29095	29231.654256304112	1.237441155501
6	29120	29310.055465042649	1.377924335189
6	29190	29355.595871258979	1.200132679194
6	29200	29367.230192821796	1.365554489754
6	29205	29378.58999130709	1.407117621787
6	29305	29453.146734115162	2.334330344116
6	29410	29544.547550721884	6.358027178133
6	29415	29546.87193961679	1.733059192263
6	29442	29559.315816134199	1.776567624007
6	29505	29601.381601093548	5.240712756269
6	29520	29613.876486358483	1.404800243862
6	29525	29617.183137486472	1.815464712307
6	29545	29631.40336037225	2.519668813292
6	29610	29697.529428587449	1.886400687881
6	29691	29737.696331161434	6.069628185576
6	29697	29740.480566577601	15.706264127435
6	29702	29741.790755829389	10.497014155461
6	29750	29771.476018610551	1.377128994447
6	29775	29812.808960134627	1.629756115563
6	29845	29884.327651408472	4.637298033443
6	29885	29924.852209611599	1.307249828428
6	29905	29933.984494212959	4.490039449371
6	29942	29961.57947318193	6.48596893289

