version 2
run Third_exit_9-19-20191023-00:20:34-5340
attr configname Third_exit_9
attr datetime 20191023-00:20:34
attr experiment Third_exit_9
attr inifile omnetpp.ini
attr iterationvars ""
attr iterationvarsf ""
attr measurement ""
attr network ResponseTimeNetwork
attr processid 5340
attr repetition 19
attr replication #19
attr resultdir results
attr runnumber 19
attr seedset 19
param **.Source.interArrivalTime exponential(6s)
param **.jobPriority bernoulli(0.8)
param **.PS.serviceTimeU1 "uniform(1.2s, 2.0s)"
param **.PS.serviceTimeU2 "uniform(2.4s, 2.8s)"
param **.SS1.serviceTime exponential(1.4s)
param **.SS2.serviceTime exponential(2s)
param **.PS.exitProbability bernoulli(0.9)

vector 0 ResponseTimeNetwork.SS1 queueLength:vector ETV
attr interpolationmode sample-hold
attr title "queue length, vector"
vector 1 ResponseTimeNetwork.SS2 queueLength:vector ETV
attr interpolationmode sample-hold
attr title "queue length, vector"
vector 2 ResponseTimeNetwork.QueueU1 queueLength:vector ETV
attr interpolationmode sample-hold
attr title "queue length, vector"
vector 3 ResponseTimeNetwork.QueueU2 queueLength:vector ETV
attr interpolationmode sample-hold
attr title "queue length, vector"
vector 4 ResponseTimeNetwork.sink lifeTimeU1:vector ETV
attr interpolationmode none
attr title "lifetime of arrived jobs U1, vector"
attr unit s
vector 5 ResponseTimeNetwork.sink lifeTime:vector ETV
attr interpolationmode none
attr title "lifetime of arrived jobs, vector"
attr unit s
2	0	0	0
2	10	3.993387193767	1
2	11	5.215335806288	0
2	15	5.336642079666	1
2	17	5.782834259248	2
2	18	6.447506582938	1
2	22	6.45896087021	2
2	23	8.433700112827	1
2	26	10.142228699304	0
2	30	10.482776420264	1
2	31	12.021440549582	0
2	35	12.470865045113	1
2	37	12.789837781645	2
2	39	13.120888829366	3
2	40	13.657888516985	2
2	44	14.627340833237	3
2	45	15.335853295043	2
2	48	16.962002159856	1
2	52	18.16145032843	2
2	54	18.441875593077	3
2	55	18.471607577443	2
2	59	19.508258251686	3
2	60	19.969949300229	2
2	64	20.36267834643	3
2	65	21.617440815843	2
2	68	23.380462557278	1
2	72	24.060384422417	2
2	73	24.695178609915	1
2	77	25.50236308392	2
2	79	26.068276500787	3
2	80	26.109965417176	2
2	83	27.539429808236	1
2	86	29.306930650785	0
2	90	29.37581708894	1
2	92	29.49289023711	2
2	93	30.558760069884	1
2	97	31.300397343461	2
2	98	31.825146047786	1
2	102	32.43026360853	2
2	104	33.093758836	3
2	105	33.302368954957	2
2	109	33.359034604744	3
2	111	33.946661718919	4
2	112	34.935915064641	3
2	116	35.505621937034	4
2	117	36.796361159363	3
2	120	38.156603919358	2
2	124	38.534545640211	3
2	126	38.646019337678	4
2	128	39.285710812762	5
2	129	39.578918889367	4
2	132	40.925242776812	3
2	136	42.333132913391	4
2	137	42.870695063674	3
2	142	44.266021796146	2
2	145	45.752973023632	1
2	149	46.814308387404	2
2	151	47.018412729838	3
2	153	47.034892767913	4
2	154	47.252124135957	3
2	158	48.795582513591	4
2	159	49.188882732035	3
2	162	50.906007418984	2
2	166	51.044581881376	3
2	167	52.224442561732	2
2	170	54.175636669823	1
2	174	54.232843193999	2
2	176	55.485330874222	3
2	177	55.795018850469	2
2	180	57.490674328634	1
2	184	57.515181667337	2
2	186	57.797337113777	3
2	188	57.837606318096	4
2	190	59.060601750964	5
2	191	59.333665873127	4
2	194	60.934767852368	3
2	198	61.740883350554	4
2	199	62.802265056798	3
2	203	64.052237457617	4
2	204	64.660631426813	3
2	208	64.825057785057	4
2	209	65.992495982738	3
2	213	66.804771376494	4
2	215	66.879151010196	5
2	216	67.452752382884	4
2	220	67.455585243929	5
2	221	68.757171098532	4
2	225	69.038493685965	5
2	226	70.748040521348	4
2	229	72.415057613345	3
2	233	73.073106084535	4
2	234	74.316869790683	3
2	238	74.567581070009	4
2	240	75.446513885522	5
2	241	76.21655809583	4
2	244	77.93870160004	3
2	248	77.991896028742	4
2	250	79.540052024407	5
2	251	79.707287736068	4
2	254	81.636748806591	3
2	257	82.879883126187	2
2	261	84.140192955822	3
2	262	84.476046454738	2
2	266	85.795743543967	3
2	267	85.804466322082	2
2	271	86.395549962024	3
2	272	87.597175259347	2
2	276	87.995978815145	3
2	277	88.868594947847	2
2	281	89.390742755769	3
2	283	89.939662407513	4
2	285	90.707524481041	5
2	286	90.847979630547	4
2	290	90.939483535006	5
2	291	92.206207983772	4
2	295	93.353383313202	5
2	296	93.57090096196	4
2	300	94.917401058857	5
2	301	95.076076651195	4
2	304	97.01581637116	3
2	308	97.600200846077	4
2	309	98.284796593542	3
2	313	100.007427211447	4
2	314	100.13812241407	3
2	318	100.145639753347	4
2	320	101.72186597154	5
2	321	102.131134217064	4
2	325	102.506273631861	5
2	326	103.463829848933	4
2	329	105.353087403457	3
2	332	106.956322648767	2
2	336	107.87184913749	3
2	337	108.671895922366	2
2	341	109.270118622791	3
2	343	109.989074829856	4
2	344	110.022690476868	3
2	348	110.588480989565	4
2	350	110.874595908493	5
2	351	112.010512136873	4
2	355	112.824572915254	5
2	357	113.345555704551	6
2	358	113.876960170847	5
2	362	114.757732198789	6
2	363	115.088943528776	5
2	366	116.996346712504	4
2	370	117.814508128036	5
2	371	118.806179071237	4
2	375	120.53288858373	5
2	376	120.69546253739	4
2	380	121.700609539877	5
2	381	121.95761269277	4
2	385	122.065031108168	5
2	387	122.592028776851	6
2	389	122.621272591191	7
2	390	123.824057960716	6
2	394	123.952340722304	7
2	395	125.491255761144	6
2	399	125.590846952942	7
2	401	125.926235190748	8
2	403	125.940139965418	9
2	404	126.776375621205	8
2	408	127.441136630674	9
2	409	128.241519059075	8
2	412	129.486868070645	7
2	416	129.528594035499	8
2	417	131.183207850924	7
2	420	132.46288876964	6
2	423	133.792633360273	5
2	426	135.113338471784	4
2	429	136.563250789626	3
2	432	138.211091281867	2
2	436	138.696399843611	3
2	437	139.689526410049	2
2	441	140.404644604288	3
2	442	141.530067016391	2
2	446	141.872616383419	3
2	447	142.770858724995	2
2	451	143.146946146538	3
2	452	144.220377491994	2
2	456	144.623808514764	3
2	458	145.667399067091	4
2	459	145.875587210639	3
2	463	146.111576918806	4
2	465	146.328489479656	5
2	467	147.630810109959	6
2	468	147.763767570278	5
2	472	147.939864523459	6
2	474	149.088340201483	7
2	475	149.315257696083	6
2	479	149.572919411354	7
2	481	149.898292540933	8
2	483	149.973512408826	9
2	484	150.589437017797	8
2	488	150.64251686953	9
2	491	151.936330146922	8
2	494	153.430332443511	7
2	497	155.221935706979	6
2	501	155.530084537803	7
2	503	155.752581171462	8
2	505	155.966020052171	9
2	506	156.663122175841	8
2	510	156.705005556279	9
2	512	157.01356148394	10
2	514	157.722703029702	11
2	516	157.859331421141	12
2	518	158.23200508283	13
2	520	158.523176311225	14
2	521	158.540719174615	13
2	525	159.471246418331	14
2	526	160.257463607958	13
2	532	161.459375309773	14
2	533	161.665171427114	13
2	536	162.930478140919	12
2	539	164.596604319869	11
2	543	165.056914975791	12
2	545	165.966028209712	13
2	546	166.187876349522	12
2	550	166.705422657819	13
2	552	167.296032903244	14
2	553	167.923651824353	13
2	556	169.126986151209	12
2	559	170.622464600971	11
2	563	171.299655401718	12
2	564	172.029993151894	11
2	568	173.447152624018	12
2	570	173.758176037806	13
2	571	173.921526931061	12
2	575	174.393685036359	13
2	576	175.200195754713	12
2	580	176.021797139147	13
2	582	176.18510973157	14
2	583	176.414470860756	13
2	586	177.832251361779	12
2	589	179.494418366275	11
2	593	180.211743072155	12
2	595	180.396447258433	13
2	597	180.995684380299	14
2	599	181.020450187019	15
2	600	181.288162936292	14
2	604	182.03067271759	15
2	605	182.669105584196	14
2	609	183.649298248448	15
2	610	183.935250962733	14
2	614	184.275592425309	15
2	615	185.297835645846	14
2	619	185.48178818148	15
2	621	185.653149486815	16
2	622	186.655727560094	15
2	626	187.223554558449	16
2	627	188.459523663318	15
2	631	189.011089037243	16
2	632	189.911753338224	15
2	636	190.136037276058	16
2	637	191.628215735799	15
2	641	192.943310773687	16
2	642	193.249365886322	15
2	646	193.548897774638	16
2	647	194.561916486754	15
2	651	194.751896052898	16
2	653	195.755429001849	17
2	654	196.180076983406	16
2	658	196.558163563119	17
2	659	197.565778614043	16
2	662	199.382930836661	15
2	666	199.486023981388	16
2	668	200.429417290208	17
2	669	200.858442623003	16
2	673	201.785260985924	17
2	674	202.290602318219	16
2	678	203.019458467717	17
2	679	203.564546737841	16
2	682	205.395167928955	15
2	685	207.228704805879	14
2	689	207.248948953198	15
2	691	207.484583098834	16
2	693	208.39832994486	17
2	694	208.869698350711	16
2	698	209.837853158929	17
2	699	210.551143158993	16
2	702	212.376833211279	15
2	706	212.841735226726	16
2	707	213.688102873249	15
2	711	213.715434651408	16
2	712	215.452635566352	15
2	716	215.522478430569	16
2	718	216.308932280913	17
2	719	216.830660877025	16
2	723	216.982767101987	17
2	724	218.644118032066	16
2	727	220.399704787342	15
2	730	221.933469080946	14
2	734	222.700400019986	15
2	735	223.25572859647	14
2	738	224.648151267341	13
2	742	224.650053606286	14
2	744	224.751464815808	15
2	746	224.841585547962	16
2	748	224.872935963381	17
2	750	225.192121815982	18
2	751	226.125759856983	17
2	754	227.376531161762	16
2	758	227.398228467508	17
2	759	229.209482665382	16
2	763	229.52106292144	17
2	764	231.053109138854	16
2	767	232.806852596089	15
2	771	233.289428800596	16
2	773	234.57840620852	17
2	774	234.725462005868	16
2	778	235.870375359166	17
2	779	235.9310778497	16
2	783	236.160417317669	17
2	784	237.635100007637	16
2	788	238.271617271378	17
2	789	239.602866390368	16
2	793	239.959037251062	17
2	795	240.922967687309	18
2	796	241.388755883483	17
2	799	242.810263911096	16
2	803	243.216856161953	17
2	805	243.935937159384	18
2	806	244.107463893128	17
2	809	245.886890638267	16
2	813	246.024244539196	17
2	815	246.989128179428	18
2	816	247.363459112143	17
2	819	248.724253820648	16
2	823	249.790426213487	17
2	825	250.217337510471	18
2	826	250.608918963765	17
2	830	250.858228579565	18
2	832	251.069350001888	19
2	834	251.604258053389	20
2	835	252.243191704733	19
2	839	252.75243415471	20
2	840	253.53440749014	19
2	844	254.307185981792	20
2	846	254.384423443537	21
2	847	255.202746939307	20
2	851	255.487325721915	21
2	852	256.585098773448	20
2	855	257.975564628115	19
2	859	259.051542367905	20
2	861	259.222879890303	21
2	862	259.311625213383	20
2	866	259.46098720445	21
2	868	260.149051692538	22
2	869	261.197918172946	21
2	873	261.775605498371	22
2	874	263.012423679812	21
2	878	263.885966501772	22
2	879	264.430424831642	21
2	882	266.420453959724	20
2	886	266.81333184904	21
2	889	268.194526933154	20
2	893	268.579000961888	21
2	894	269.485371546095	20
2	898	269.516721443979	21
2	900	270.808244862928	22
2	901	271.370902975483	21
2	905	272.009116053549	22
2	906	272.807437483428	21
2	909	274.013276982328	20
2	912	275.363314187361	19
2	916	275.769997047241	20
2	918	276.471727355777	21
2	919	276.909174854143	20
2	923	277.169660884645	21
2	924	278.158248146272	20
2	929	279.62695982924	19
2	933	280.215886289324	20
2	934	280.977428410969	19
2	938	281.828620997135	20
2	940	282.008774397732	21
2	942	282.307459997566	22
2	943	282.897530333719	21
2	947	283.680363377041	22
2	948	284.178473667263	21
2	951	285.754155642933	20
2	955	286.70604277269	21
2	956	287.671775041914	20
2	960	287.673230513206	21
2	962	288.269469354577	22
2	963	288.967116695291	21
2	968	290.601501368566	20
2	972	290.614308791253	21
2	974	291.294381245678	22
2	976	291.528181712505	23
2	978	291.774029825082	24
2	979	292.007295553593	23
2	983	292.07108888469	24
2	985	292.388253191123	25
2	986	293.27233629117	24
2	990	293.279660201394	25
2	992	294.987370485758	26
2	993	295.047549132651	25
2	997	295.323835312144	26
2	998	296.350217865987	25
2	1003	298.137961016989	24
2	1007	299.395201840456	25
2	1008	299.952863652839	24
2	1011	301.280364194906	23
2	1015	302.093607913791	24
2	1017	302.529985454839	25
2	1018	303.223944035939	24
2	1022	303.910856911306	25
2	1023	305.111624703578	24
2	1027	305.214904185363	25
2	1029	305.313619845937	26
2	1030	306.376928814522	25
2	1033	308.241174478664	24
2	1037	308.83239206928	25
2	1039	309.281120261025	26
2	1040	310.105749759099	25
2	1044	310.319592079987	26
2	1045	312.042015651448	25
2	1049	312.906394611472	26
2	1050	313.513292158788	25
2	1053	315.118802398277	24
2	1057	315.413357202478	25
2	1061	316.221894842626	26
2	1062	316.324038261009	25
2	1066	317.244316742021	26
2	1067	317.583093178292	25
2	1071	317.773244619012	26
2	1073	317.945392335003	27
2	1074	319.034989706074	26
2	1080	320.409149084276	27
2	1081	321.024117036183	26
2	1084	322.714220472258	25
2	1088	322.936252168246	26
2	1089	324.578002577108	25
2	1093	325.044704648877	26
2	1094	325.849829033595	25
2	1098	325.99248093954	26
2	1099	327.632859198396	25
2	1103	327.724499183363	26
2	1104	329.437082774398	25
2	1107	330.787798473445	24
2	1111	331.018505658225	25
2	1113	331.50581484711	26
2	1114	332.309649620411	25
2	1118	333.293502728695	26
2	1119	333.815245192704	25
2	1123	335.041545886704	26
2	1124	335.447969657389	25
2	1129	337.010862788019	24
2	1133	337.053308460906	25
2	1135	338.649122417759	26
2	1136	338.66843387412	25
2	1140	339.57565678409	26
2	1141	339.912473069337	25
2	1145	340.963165096678	26
2	1147	341.252001592478	27
2	1148	341.866905827095	26
2	1151	343.423378423435	25
2	1155	343.671616968307	26
2	1156	344.784691548554	25
2	1160	345.656050024286	26
2	1161	346.408417085392	25
2	1164	348.228388641422	24
2	1169	349.551163142753	23
2	1173	350.304056011461	24
2	1175	350.387275585719	25
2	1176	350.857184218821	24
2	1180	352.305352495479	25
2	1182	352.485817688047	26
2	1183	352.747207769398	25
2	1187	353.240987916007	26
2	1188	354.269931516629	25
2	1191	355.999410926197	24
2	1195	356.063660880335	25
2	1196	357.858088109661	24
2	1199	359.437495663967	23
2	1203	360.14110016261	24
2	1204	361.420987308975	23
2	1207	363.017252612132	22
2	1211	363.256441718209	23
2	1213	363.399198192076	24
2	1215	363.632341436831	25
2	1216	364.995395530033	24
2	1220	365.421831534151	25
2	1221	366.901880269702	24
2	1224	368.622265394981	23
2	1228	369.322019597681	24
2	1229	369.96577893665	23
2	1233	370.296277732237	24
2	1234	371.48321413232	23
2	1237	372.75452645367	22
2	1241	372.798789813895	23
2	1243	373.22531645264	24
2	1245	373.568249280204	25
2	1247	373.669073600338	26
2	1248	374.462011655439	25
2	1252	375.252829791392	26
2	1254	375.985522636735	27
2	1255	376.027613361199	26
2	1261	376.86435388925	27
2	1264	377.738912783769	26
2	1268	378.314668125603	27
2	1270	378.520908142456	28
2	1271	379.603355235067	27
2	1275	381.243138981458	28
2	1276	381.372092776392	27
2	1280	381.393432111864	28
2	1282	382.246805140448	29
2	1283	382.934838425387	28
2	1287	383.713976953367	29
2	1288	384.50135468768	28
2	1292	384.737190827423	29
2	1294	385.489412030596	30
2	1295	385.705118227024	29
2	1298	387.331794277225	28
2	1301	389.162014290523	27
2	1305	389.842769409628	28
2	1307	390.111047181768	29
2	1308	390.808701686952	28
2	1312	390.994364329317	29
2	1315	392.33610165419	28
2	1318	393.891757473368	27
2	1321	395.846206068825	26
2	1325	396.186440770052	27
2	1327	396.58599505926	28
2	1329	397.154377951738	29
2	1330	397.396310091782	28
2	1333	398.93889307009	27
2	1336	400.716837142426	26
2	1340	402.127248152953	27
2	1341	402.417020364869	26
2	1345	402.774660237514	27
2	1347	403.659267652342	28
2	1348	404.34694149943	27
2	1352	404.956209808841	28
2	1354	405.889780470131	29
2	1355	406.032873305324	28
2	1359	406.502832256721	29
2	1363	407.249697754275	30
2	1365	407.368171707228	31
2	1366	407.759951461125	30
2	1369	409.399162824657	29
2	1372	411.11876779275	28
2	1376	411.258757802352	29
2	1378	412.475356349502	30
2	1379	412.674822454918	29
2	1382	414.503170052934	28
2	1386	414.933490423125	29
2	1387	416.427350554261	28
2	1391	417.130086313765	29
2	1392	418.259541049804	28
2	1396	418.540527101074	29
2	1397	419.767385077122	28
2	1401	420.823069494578	29
2	1403	420.913213550094	30
2	1404	421.144585454109	29
2	1408	421.148203882665	30
2	1410	421.753940328997	31
2	1411	422.955010828207	30
2	1415	423.485827306721	31
2	1417	423.616907155908	32
2	1419	424.331368957424	33
2	1421	424.486308726631	34
2	1422	424.927718962001	33
2	1426	425.797929169619	34
2	1427	426.527871376293	33
2	1431	427.615386168094	34
2	1432	427.953653201105	33
2	1436	428.956187455316	34
2	1438	429.397349826465	35
2	1439	429.942373720387	34
2	1443	431.165552660385	35
2	1444	431.63331237735	34
2	1448	432.505746016096	35
2	1449	432.890624815801	34
2	1452	434.579995996894	33
2	1456	434.898046784194	34
2	1458	435.225996325016	35
2	1460	435.287304688057	36
2	1462	435.582410321125	37
2	1463	436.393813003057	36
2	1467	437.303947993954	37
2	1468	437.625072685273	36
2	1472	437.761133187046	37
2	1473	439.373911406489	36
2	1477	440.205740670297	37
2	1478	440.84173952231	36
2	1482	440.991218454798	37
2	1483	442.281448104436	36
2	1486	443.550947469304	35
2	1490	444.427277261818	36
2	1492	444.692508218652	37
2	1493	444.898930541443	36
2	1496	446.199953270721	35
2	1500	446.362931774028	36
2	1501	447.419415684807	35
2	1505	448.491948774417	36
2	1506	448.866642726975	35
2	1510	449.1360659622	36
2	1512	450.190419864176	37
2	1514	450.702755181863	38
2	1515	450.801441412623	37
2	1519	451.930612363399	38
2	1520	452.192564687337	37
2	1523	454.165013788845	36
2	1527	454.253511702561	37
2	1528	455.70563674068	36
2	1532	456.868013601548	37
2	1534	456.924765211125	38
2	1535	456.954807007144	37
2	1539	457.830722575379	38
2	1540	458.551016874443	37
2	1544	458.71543632875	38
2	1545	459.877787290159	37
2	1549	461.061499755285	38
2	1550	461.862440065313	37
2	1554	462.421181357892	38
2	1558	463.252296081846	39
2	1561	463.513616512548	38
2	1565	464.080390369332	39
2	1567	464.553305622744	40
2	1569	464.636122918084	41
2	1570	465.068583741057	40
2	1573	466.376060043293	39
2	1576	467.953483626823	38
2	1580	468.394385024725	39
2	1581	469.392496036942	38
2	1585	470.302220944982	39
2	1587	470.376048869481	40
2	1589	470.909331146231	41
2	1590	471.069321512821	40
2	1594	472.346662879606	41
2	1596	472.437955838095	42
2	1597	472.810388955119	41
2	1601	473.513632001574	42
2	1603	473.62060536661	43
2	1605	473.716013179326	44
2	1606	474.393244145828	43
2	1610	474.555630510421	44
2	1611	475.748681898991	43
2	1615	475.959837839724	44
2	1618	477.144871951284	43
2	1622	478.454543203738	44
2	1625	478.598704942333	43
2	1629	478.862756791976	44
2	1631	479.426791178799	45
2	1632	480.144089012796	44
2	1636	480.404932295969	45
2	1637	481.549243583919	44
2	1640	482.809505429508	43
2	1644	484.156763124198	44
2	1645	484.168523845652	43
2	1648	485.673527389595	42
2	1652	486.026931730131	43
2	1654	486.876526131491	44
2	1655	487.620417862588	43
2	1659	487.844261140573	44
2	1661	488.019222275273	45
2	1662	489.151541072333	44
2	1665	490.857000663334	43
2	1669	491.132672434311	44
2	1670	492.325144704634	43
2	1673	493.984884014928	42
2	1677	494.00674368128	43
2	1678	495.359198913367	42
2	1681	496.672632349299	41
2	1685	497.730077987771	42
2	1687	497.957351504355	43
2	1688	498.500595066713	42
2	1692	498.772710293479	43
2	1693	500.238407702947	42
2	1696	501.765000905486	41
2	1699	503.305008084903	40
2	1703	504.574730024994	41
2	1705	504.89016834821	42
2	1706	505.234688602405	41
2	1710	505.380982875767	42
2	1711	506.612452206405	41
2	1714	508.332829936238	40
2	1720	508.625092753782	41
2	1722	508.894299754597	42
2	1723	510.066844578849	41
2	1727	510.673144857461	42
2	1728	511.342733172716	41
2	1732	512.259716923036	42
2	1733	512.76875546837	41
2	1736	514.069498887861	40
2	1739	515.270968768203	39
2	1743	516.524810772338	40
2	1744	516.734778668748	39
2	1747	518.352954080717	38
2	1751	519.326808125487	39
2	1752	519.977359288761	38
2	1755	521.879126172715	37
2	1759	522.018015880104	38
2	1760	523.273421863669	37
2	1764	523.310031481972	38
2	1765	524.619294543953	37
2	1768	526.121913022192	36
2	1772	527.234300682224	37
2	1773	527.782250262627	36
2	1777	528.000313115921	37
2	1779	528.535393288865	38
2	1780	529.249471086466	37
2	1784	529.481682942665	38
2	1786	530.295124581406	39
2	1788	530.657549686425	40
2	1789	530.723528777265	39
2	1793	531.141560686856	40
2	1795	531.184673985242	41
2	1798	532.568874609859	40
2	1802	533.381188935939	41
2	1803	534.381908808292	40
2	1807	535.198663490402	41
2	1808	536.167541934938	40
2	1812	536.500542374225	41
2	1814	536.899117968456	42
2	1815	537.654702542552	41
2	1819	538.749462716535	42
2	1820	538.928730473683	41
2	1824	540.031273044774	42
2	1825	540.392569700644	41
2	1829	541.067832984637	42
2	1830	541.742184775711	41
2	1834	542.656323033159	42
2	1835	543.565690739096	41
2	1839	543.713595509253	42
2	1841	544.606202638287	43
2	1842	545.322736304455	42
2	1846	545.638757572117	43
2	1848	546.046434853203	44
2	1849	546.609991495513	43
2	1853	547.006310121555	44
2	1855	548.096220479809	45
2	1856	548.514808498525	44
2	1860	549.325070828653	45
2	1862	549.568811447689	46
2	1863	550.297546148875	45
2	1867	550.527360501959	46
2	1868	552.295220704393	45
2	1872	552.619963382132	46
2	1874	552.81990575899	47
2	1875	553.716237092407	46
2	1878	555.400599449517	45
2	1882	556.147323274739	46
2	1884	556.650004482542	47
2	1885	557.186128097789	46
2	1889	557.586856092709	47
2	1891	557.628691259765	48
2	1892	558.766261486167	47
2	1896	559.733091556031	48
2	1897	560.206549962813	47
2	1901	560.410840168797	48
2	1903	561.349041759998	49
2	1904	561.681375567259	48
2	1907	563.394868740642	47
2	1911	563.771114202614	48
2	1913	564.129505837038	49
2	1915	564.210766478194	50
2	1917	564.222092698998	51
2	1918	564.606993798183	50
2	1922	564.994113747349	51
2	1923	566.486430003883	50
2	1926	567.847899793291	49
2	1929	569.385963515395	48
2	1933	570.473054983204	49
2	1934	571.344375454651	48
2	1938	571.693574307527	49
2	1940	572.688005129395	50
2	1941	573.019257514568	49
2	1944	574.4341979135	48
2	1948	574.907653469616	49
2	1950	574.989980645455	50
2	1952	575.52338165325	51
2	1953	575.955964427086	50
2	1956	577.903470734338	49
2	1959	579.678196859377	48
2	1963	579.935328048266	49
2	1964	581.59788602704	48
2	1968	581.985765188258	49
2	1969	583.087768938782	48
2	1973	583.704311817477	49
2	1975	583.873429766935	50
2	1977	584.11938149707	51
2	1978	585.006262531149	50
2	1982	585.448177312333	51
2	1984	585.723364829881	52
2	1985	586.778770113568	51
2	1988	588.376812474447	50
2	1992	588.7761014026	51
2	1993	590.243312150444	50
2	1996	591.675515914167	49
2	2001	593.62087507231	48
2	2005	594.120809104801	49
2	2006	595.154716946574	48
2	2010	595.902753505699	49
2	2012	596.695667686487	50
2	2013	596.728812578337	49
2	2017	597.263048238997	50
2	2019	597.719060621827	51
2	2021	598.584661566876	52
2	2022	598.681653680296	51
2	2026	598.936751195906	52
2	2028	599.619128435508	53
2	2029	600.317651383967	52
2	2033	601.194393169979	53
2	2034	601.984691554324	52
2	2038	602.621038021554	53
2	2039	603.834755385497	52
2	2043	604.012105153795	53
2	2045	605.255557837831	54
2	2046	605.790146473439	53
2	2051	607.730363389866	52
2	2054	609.673728250915	51
2	2058	610.125902433156	52
2	2060	611.226076115803	53
2	2061	611.481938506121	52
2	2065	611.540789589712	53
2	2067	612.303609535393	54
2	2068	613.379826410318	53
2	2071	614.897244776244	52
2	2075	615.581828609233	53
2	2077	615.630287078781	54
2	2079	615.695752426264	55
2	2080	616.347232358175	54
2	2084	616.513792666428	55
2	2085	618.024893070216	54
2	2091	618.620589813457	55
2	2092	619.717550592701	54
2	2095	621.50498606881	53
2	2099	621.556588117461	54
2	2101	622.437079216045	55
2	2102	623.204397196899	54
2	2106	624.280264060579	55
2	2107	624.494343614223	54
2	2111	624.747976550708	55
2	2113	625.648292396998	56
2	2114	626.275265678967	55
2	2117	627.641779133881	54
2	2121	628.720395141287	55
2	2122	629.49294202851	54
2	2126	629.63188920206	55
2	2127	630.765595182421	54
2	2131	631.90464056499	55
2	2132	632.641564160602	54
2	2136	633.334501437615	55
2	2137	634.304092616977	54
2	2141	634.45263996823	55
2	2143	635.180120536806	56
2	2145	635.291248664276	57
2	2147	635.337198773193	58
2	2148	635.965659084188	57
2	2152	636.219786381431	58
2	2153	637.800923691707	57
2	2157	637.898112689144	58
2	2158	639.016533402929	57
2	2162	640.152398340146	58
2	2164	640.312756118342	59
2	2165	640.837635839561	58
2	2169	642.039695604191	59
2	2170	642.54231955299	58
2	2174	642.852342885851	59
2	2176	643.363218541943	60
2	2177	644.475257077644	59
2	2181	645.612228948515	60
2	2182	646.238171592372	59
2	2186	646.47059934579	60
2	2188	647.006058961567	61
2	2189	648.190074300783	60
2	2192	650.135242398473	59
2	2196	650.151329462854	60
2	2198	651.133662121934	61
2	2199	652.073781391623	60
2	2203	652.078115944686	61
2	2205	653.705214265681	62
2	2206	653.787157863768	61
2	2209	655.469679293426	60
2	2213	657.20492175557	61
2	2214	657.461740587855	60
2	2218	658.300657670963	61
2	2219	658.724954292009	60
2	2223	659.573046475328	61
2	2224	660.606400297413	60
2	2229	662.456575256603	59
2	2233	663.76940927065	60
2	2235	664.329315950195	61
2	2236	664.429399905371	60
2	2240	664.602412383691	61
2	2241	666.176455238292	60
2	2246	667.938742208311	59
2	2250	668.366414950851	60
2	2252	668.59088750382	61
2	2253	669.362185465933	60
2	2257	670.152224630141	61
2	2258	671.184114206971	60
2	2262	671.471052139449	61
2	2263	672.48876694517	60
2	2267	672.827451191072	61
2	2268	673.779087477566	60
2	2272	674.003812896419	61
2	2273	675.458966614881	60
2	2277	675.84701395874	61
2	2278	676.706862351687	60
2	2282	677.257287537025	61
2	2283	678.101920306699	60
2	2286	679.886951544152	59
2	2289	681.176647652143	58
2	2293	681.559341566864	59
2	2295	682.581776026748	60
2	2297	682.851731684188	61
2	2298	682.898146033117	60
2	2302	684.640622452251	61
2	2303	684.695469833182	60
2	2307	685.162009855475	61
2	2308	686.026758744025	60
2	2312	686.682189911228	61
2	2314	686.799041678827	62
2	2316	686.978640527764	63
2	2318	687.351248971961	64
2	2319	687.356511767784	63
2	2323	688.696896862018	64
2	2324	688.809240339154	63
2	2328	689.19241376103	64
2	2330	690.727271632568	65
2	2331	690.75691881256	64
2	2334	692.381412058713	63
2	2338	693.126173360132	64
2	2339	694.308281961473	63
2	2342	696.218994142132	62
2	2346	697.060596102421	63
2	2348	697.294755901596	64
2	2349	697.672082996572	63
2	2352	699.137472827564	62
2	2355	700.598993868026	61
2	2358	701.826852590236	60
2	2362	702.13449542653	61
2	2363	703.720637684706	60
2	2367	704.419435210667	61
2	2369	705.477683782393	62
2	2370	705.510023384187	61
2	2374	705.694163367293	62
2	2376	706.456933663279	63
2	2378	706.472235906888	64
2	2380	707.076631773609	65
2	2381	707.101278908569	64
2	2384	708.562403565105	63
2	2388	708.820311983657	64
2	2389	709.870839623567	63
2	2393	711.578908504118	64
2	2394	711.592478866335	63
2	2397	713.004442656059	62
2	2401	713.807321830401	63
2	2403	714.408864976281	64
2	2404	714.870947313514	63
2	2408	715.603287504563	64
2	2409	716.782489381377	63
2	2415	717.939811341099	64
2	2416	718.068848025445	63
2	2420	718.237752477637	64
2	2422	719.083959461838	65
2	2424	719.246529195655	66
2	2425	719.569852796588	65
2	2429	719.864479833035	66
2	2431	720.858886902362	67
2	2432	721.026347177867	66
2	2435	722.656169554051	65
2	2439	724.352138597757	66
2	2440	724.54435986096	65
2	2444	724.735655486554	66
2	2445	725.764722822997	65
2	2449	726.232878895674	66
2	2451	726.839649770654	67
2	2452	727.62358268408	66
2	2456	728.181148361702	67
2	2458	728.647320070363	68
2	2459	729.077426333184	67
2	2463	729.08995453199	68
2	2464	730.328303287382	67
2	2468	730.380430475811	68
2	2469	732.18517248595	67
2	2472	733.64803646339	66
2	2476	734.928676547912	67
2	2477	735.292468446883	66
2	2481	735.408296664738	67
2	2482	736.497542401421	66
2	2487	737.739306407626	65
2	2490	739.426666653733	64
2	2494	739.693123191584	65
2	2498	740.502601650891	66
2	2500	740.597906515466	67
2	2501	741.091742378119	66
2	2505	741.55440045171	67
2	2506	742.775480053592	66
2	2509	744.247592709045	65
2	2512	745.646944444272	64
2	2516	745.726513614329	65
2	2518	746.776402493079	66
2	2519	746.985904454458	65
2	2523	747.854608349747	66
2	2524	748.686284543033	65
2	2528	749.179578616877	66
2	2530	749.431786797602	67
2	2531	750.368305365945	66
2	2535	750.956653384229	67
2	2537	751.827237187576	68
2	2538	751.868874078634	67
2	2542	752.052427819129	68
2	2544	752.519748139937	69
2	2546	753.087277518474	70
2	2547	753.22295839602	69
2	2550	754.826520307566	68
2	2553	756.226878970879	67
2	2557	757.478330575416	68
2	2559	757.516319984951	69
2	2560	757.857325213606	68
2	2564	757.971206249003	69
2	2566	759.164323161312	70
2	2567	759.586682766134	69
2	2571	759.921619045829	70
2	2572	761.064124346541	69
2	2576	762.165116939938	70
2	2578	762.214620714579	71
2	2579	762.915739867666	70
2	2583	763.578802258202	71
2	2584	764.144027629511	70
2	2587	765.826612353341	69
2	2591	766.549892430014	70
2	2592	767.062444678896	69
2	2596	767.216882475595	70
2	2597	768.58598304914	69
2	2601	768.773107794694	70
2	2605	769.718419447162	71
2	2606	769.812979185224	70
2	2610	769.931136154257	71
2	2612	771.403121255243	72
2	2613	771.512604090214	71
2	2617	772.028275600733	72
2	2620	773.323124083333	71
2	2624	773.567525425856	72
2	2625	774.814748412013	71
2	2629	775.825762358011	72
2	2630	776.34014783708	71
2	2634	776.540238892021	72
2	2636	777.622275542319	73
2	2637	777.627799788132	72
2	2640	778.987938771225	71
2	2643	780.626270060442	70
2	2646	782.126378552258	69
2	2650	783.185159480817	70
2	2652	783.694690512367	71
2	2653	783.864518740602	70
2	2657	784.047275162555	71
2	2658	785.194834093578	70
2	2662	786.180610224447	71
2	2663	786.677763432279	70
2	2666	788.169711611621	69
2	2670	788.721719710083	70
2	2672	788.97888065297	71
2	2673	789.708271554686	70
2	2677	790.229468039393	71
2	2679	790.239243547562	72
2	2681	790.504575275231	73
2	2683	791.401489645284	74
2	2684	791.693853765182	73
2	2688	793.056706621635	74
2	2689	793.566551363669	73
2	2693	793.890070839006	74
2	2695	794.545797851262	75
2	2697	795.116682116367	76
2	2698	795.402424900435	75
2	2702	796.185571790532	76
2	2703	796.692706373908	75
2	2707	798.515014102099	76
2	2708	798.681093958967	75
2	2711	800.359768654049	74
2	2715	800.512690202547	75
2	2717	800.752198547022	76
2	2719	801.06563882255	77
2	2720	802.293627559409	76
2	2724	802.551191791761	77
2	2725	803.915693427265	76
2	2729	803.933845978632	77
2	2731	805.457396608047	78
2	2732	805.602722227589	77
2	2736	806.046300864382	78
2	2737	807.393868610465	77
2	2741	807.522357623587	78
2	2744	809.214720280484	77
2	2748	809.923650828145	78
2	2749	811.009917957165	77
2	2753	812.10551878184	78
2	2755	812.357921759383	79
2	2756	812.783125966989	78
2	2760	814.116121041923	79
2	2761	814.625370546818	78
2	2765	815.406448743769	79
2	2767	816.128943155074	80
2	2768	816.347650142029	79
2	2772	817.431343556983	80
2	2774	818.211546565048	81
2	2775	818.229821213909	80
2	2778	819.867500104957	79
2	2782	820.147309918681	80
2	2784	820.964159647896	81
2	2785	821.311028092556	80
2	2788	822.596260571309	79
2	2791	824.487269897588	78
2	2795	825.161452673369	79
2	2796	825.819794073716	78
2	2800	825.987881518938	79
2	2802	826.89188669358	80
2	2803	827.182795341328	79
2	2807	827.79030377135	80
2	2808	828.558410834536	79
2	2811	830.291280064002	78
2	2815	830.471783673445	79
2	2817	830.823993996654	80
2	2819	831.030792242728	81
2	2820	831.66304242687	80
2	2824	831.86382150019	81
2	2826	832.363216811912	82
2	2828	832.827258896773	83
2	2829	833.210951615327	82
2	2833	833.578529768982	83
2	2834	834.832181249016	82
2	2838	835.024718037378	83
2	2839	836.294634563305	82
2	2843	837.156766860157	83
2	2844	838.195649565958	82
2	2847	839.590574599818	81
2	2850	841.019057735071	80
2	2854	841.562192824591	81
2	2855	842.513700254091	80
2	2859	842.981673048828	81
2	2860	844.427232962863	80
2	2864	844.739703222195	81
2	2866	845.938708143525	82
2	2867	845.97864327451	81
2	2870	847.969496013241	80
2	2874	849.276617000652	81
2	2876	849.572964135203	82
2	2877	849.674753947573	81
2	2881	851.038540655185	82
2	2882	851.134288093837	81
2	2885	852.806992609071	80
2	2888	854.032702620717	79
2	2892	854.185261502666	80
2	2894	855.607690344353	81
2	2895	855.85985461382	80
2	2899	856.116423819235	81
2	2901	857.18656887801	82
2	2902	857.324628714675	81
2	2908	858.470193043648	82
2	2909	858.923929276893	81
2	2913	859.538066717862	82
2	2914	860.217182539048	81
2	2918	860.350524192926	82
2	2919	861.63650656903	81
2	2923	862.161348997916	82
2	2924	863.382169109414	81
2	2927	865.172004285658	80
2	2931	865.175895612523	81
2	2935	866.054021981693	82
2	2936	866.75805023277	81
2	2940	867.169911595209	82
2	2941	868.499597707594	81
2	2944	869.871868066134	80
2	2948	870.746277335507	81
2	2950	871.636525503818	82
2	2951	871.843697861413	81
2	2954	873.27308031136	80
2	2957	875.077735399658	79
2	2961	875.281305871042	80
2	2963	876.508638228599	81
2	2964	876.996470925601	80
2	2968	878.290275315251	81
2	2969	878.594200882518	80
2	2973	879.912864826322	81
2	2974	880.189499929377	80
2	2978	880.745735833115	81
2	2979	881.626648088933	80
2	2982	883.197279794344	79
2	2986	883.247330022361	80
2	2987	884.431722078861	79
2	2991	884.952451662714	80
2	2992	885.668427796119	79
2	2995	887.05715484956	78
2	2999	887.701460004386	79
2	3001	888.228743612464	80
2	3002	888.628480601327	79
2	3006	889.466399776604	80
2	3008	889.591528785354	81
2	3010	890.315347138706	82
2	3011	890.422183880226	81
2	3014	891.878355012291	80
2	3018	893.615475847862	81
2	3019	893.735604936832	80
2	3023	893.780600852786	81
2	3024	895.082620725611	80
2	3028	895.147959754805	81
2	3030	895.692989350028	82
2	3031	896.989583857933	81
2	3035	897.059714526914	82
2	3036	898.854829638282	81
2	3039	900.588985579664	80
2	3043	900.591645386211	81
2	3044	902.238544198142	80
2	3049	904.011071053536	79
2	3052	905.839002554135	78
2	3055	907.160697234252	77
2	3059	907.495775492805	78
2	3061	908.055568398714	79
2	3062	908.561354567686	78
2	3066	908.969302925017	79
2	3067	909.864063126052	78
2	3071	910.252526422994	79
2	3073	910.399814726406	80
2	3074	911.68372960856	79
2	3078	911.862003126549	80
2	3080	912.389367129326	81
2	3083	913.477640672231	80
2	3089	914.490572088662	81
2	3090	915.396163372153	80
2	3094	915.552486847803	81
2	3095	916.731128413805	80
2	3098	918.076062494346	79
2	3102	918.791529077519	80
2	3104	918.88647975667	81
2	3105	919.351121874728	80
2	3109	920.680940271404	81
2	3110	921.04004421869	80
2	3114	921.328665949502	81
2	3115	922.600864490696	80
2	3119	922.663726596206	81
2	3121	922.871829078032	82
2	3122	924.169344655254	81
2	3126	924.387246790157	82
2	3129	925.696704859302	81
2	3132	927.40085773898	80
2	3136	927.7925208817	81
2	3137	928.811372912691	80
2	3140	930.189836549402	79
2	3145	932.156865645588	78
2	3149	933.261437803962	79
2	3151	933.317384357234	80
2	3152	933.683245896377	79
2	3156	934.33546506992	80
2	3158	934.695168927869	81
2	3159	935.549158500523	80
2	3162	937.208577088282	79
2	3166	938.239686995391	80
2	3167	938.71594693625	79
2	3171	939.743762052063	80
2	3172	940.109956454873	79
2	3176	940.472090722229	80
2	3177	941.407713470064	79
2	3181	941.527690960228	80
2	3183	941.861641372175	81
2	3184	943.360322454214	80
2	3187	944.908070282467	79
2	3190	946.329853491314	78
2	3194	946.338934069268	79
2	3195	947.871684438937	78
2	3199	949.03365772036	79
2	3201	949.255790553675	80
2	3202	949.554676245355	79
2	3206	949.602289102548	80
2	3207	951.180795462818	79
2	3211	952.041969034642	80
2	3212	952.690478312985	79
2	3215	954.039764491484	78
2	3218	955.853936960563	77
2	3222	956.561973097191	78
2	3224	957.624742838836	79
2	3225	957.658679309688	78
2	3229	957.846841401201	79
2	3230	958.89956714233	78
2	3234	959.059136836245	79
2	3236	959.919334417834	80
2	3237	960.634275355764	79
2	3241	961.711387878409	80
2	3242	961.931958062217	79
2	3246	963.191532609709	80
2	3248	963.609030993845	81
2	3249	963.76757429374	80
2	3253	964.47555751326	81
2	3254	965.341266082987	80
2	3257	967.09100853467	79
2	3261	967.469203012757	80
2	3263	967.610906420222	81
2	3264	968.410737397164	80
2	3267	969.724779483691	79
2	3271	969.932538368891	80
2	3272	971.192320143633	79
2	3276	972.058137287824	80
2	3277	972.534311211683	79
2	3280	974.420273032986	78
2	3284	975.24975091326	79
2	3285	975.77356652768	78
2	3289	976.386126289741	79
2	3290	977.235469100081	78
2	3294	978.543635614822	79
2	3295	978.808768703059	78
2	3298	980.111844136581	77
2	3302	980.904301021202	78
2	3304	980.949704290837	79
2	3305	982.035670226827	78
2	3308	983.255317755058	77
2	3312	984.050268688802	78
2	3313	984.570159983277	77
2	3317	985.353228715029	78
2	3318	986.375037889383	77
2	3322	987.574226806177	78
2	3323	987.625725992597	77
2	3326	989.496725811824	76
2	3330	990.061066810625	77
2	3331	991.170309387535	76
2	3335	991.439113143739	77
2	3336	993.046350168266	76
2	3340	993.40716944355	77
2	3341	994.656577043996	76
2	3344	996.084330211968	75
2	3347	997.317949634434	74
2	3351	997.681767109537	75
2	3353	998.348143150062	76
2	3354	999.084926481934	75
2	3357	1000.883656105416	74
2	3360	1002.451309335807	73
2	3364	1003.862746332227	74
2	3365	1004.089476791972	73
2	3369	1004.511391627772	74
2	3371	1004.630089799333	75
2	3373	1005.425161722421	76
2	3374	1005.455935622768	75
2	3378	1006.146935177765	76
2	3380	1006.784068859601	77
2	3381	1006.836942894959	76
2	3385	1008.205098591177	77
2	3386	1008.608161672221	76
2	3390	1009.571537017477	77
2	3391	1010.053324123861	76
2	3394	1011.933586643653	75
2	3398	1012.365754926249	76
2	3400	1012.39666930915	77
2	3402	1012.817474184128	78
2	3403	1013.701137712615	77
2	3406	1015.099476653168	76
2	3410	1015.410454630877	77
2	3411	1016.684891519712	76
2	3414	1018.473744145425	75
2	3417	1020.222536035644	74
2	3423	1020.494420425529	75
2	3424	1022.004136486927	74
2	3428	1023.143202501655	75
2	3429	1023.250093648599	74
2	3433	1024.002420980283	75
2	3435	1024.614871366289	76
2	3436	1024.884695949608	75
2	3440	1025.146251352458	76
2	3442	1026.493223437548	77
2	3444	1026.617437757919	78
2	3445	1026.688452844897	77
2	3448	1028.531344267742	76
2	3452	1029.494069434099	77
2	3454	1029.643961278429	78
2	3455	1030.069944680498	77
2	3459	1030.226484050808	78
2	3461	1031.273049571525	79
2	3462	1031.353492148236	78
2	3466	1032.107676929409	79
2	3467	1032.574490684845	78
2	3470	1033.937700414114	77
2	3473	1035.487704995476	76
2	3476	1036.690530433521	75
2	3479	1038.428668817148	74
2	3483	1038.459054061461	75
2	3485	1039.392864427845	76
2	3486	1040.289430373364	75
2	3490	1040.614883401964	76
2	3492	1041.831984474091	77
2	3494	1042.008404523279	78
2	3495	1042.104404049755	77
2	3499	1042.350594315985	78
2	3501	1042.463896387188	79
2	3504	1043.661635724843	78
2	3508	1044.335247761496	79
2	3509	1045.485821519621	78
2	3512	1047.009622693077	77
2	3515	1048.951425037548	76
2	3519	1049.725265140239	77
2	3520	1050.511130151354	76
2	3523	1051.898694100246	75
2	3527	1051.963413513341	76
2	3528	1053.853793703221	75
2	3532	1055.072210282704	76
2	3533	1055.491073759474	75
2	3536	1057.444375155695	74
2	3539	1058.685828518696	73
2	3543	1058.872845649389	74
2	3545	1059.53479531501	75
2	3547	1059.706966619857	76
2	3549	1059.779999183175	77
2	3550	1060.167018629439	76
2	3553	1062.001248640209	75
2	3557	1062.940742891698	76
2	3559	1063.197440708349	77
2	3561	1063.208728588737	78
2	3563	1063.246718569661	79
2	3564	1063.327304240517	78
2	3568	1064.212637939818	79
2	3569	1064.618651274979	78
2	3572	1066.327918156996	77
2	3576	1066.982962699559	78
2	3578	1067.024007064247	79
2	3580	1067.040594841548	80
2	3582	1068.290382022837	81
2	3583	1068.298323270321	80
2	3587	1068.446059289448	81
2	3589	1069.268253405362	82
2	3590	1069.664830248259	81
2	3594	1069.889825495293	82
2	3596	1070.580574351921	83
2	3598	1071.076303113681	84
2	3599	1071.545197813414	83
2	3603	1071.879599575019	84
2	3605	1072.641732498624	85
2	3606	1073.068596667066	84
2	3610	1073.727707717202	85
2	3612	1074.678876183585	86
2	3613	1074.958369334988	85
2	3617	1075.335000300981	86
2	3620	1076.682623652756	85
2	3624	1076.857433269243	86
2	3625	1078.235906885579	85
2	3629	1078.386157849355	86
2	3631	1078.791071614837	87
2	3633	1079.448358562307	88
2	3634	1079.604932224579	87
2	3638	1080.174180631208	88
2	3639	1081.466004812173	87
2	3643	1081.584219609122	88
2	3646	1082.801205472849	87
2	3650	1082.895114663724	88
2	3652	1083.311673714379	89
2	3653	1084.736260460704	88
2	3657	1084.875204436968	89
2	3659	1085.829097029295	90
2	3660	1086.12188504377	89
2	3663	1087.425745794564	88
2	3666	1088.847903104513	87
2	3670	1089.152916178224	88
2	3672	1089.578508991861	89
2	3674	1089.940977339351	90
2	3676	1090.015274646562	91
2	3677	1090.454381605811	90
2	3681	1090.65372121268	91
2	3683	1091.460310328387	92
2	3684	1092.158330230057	91
2	3688	1093.431526720548	92
2	3690	1093.809868030055	93
2	3691	1093.811460628375	92
2	3695	1094.010538547522	93
2	3697	1094.230435081527	94
2	3698	1095.408026971496	93
2	3702	1095.452851801941	94
2	3703	1096.996990313581	93
2	3707	1098.57005841203	94
2	3708	1098.578178591109	93
2	3711	1100.055943311392	92
2	3715	1101.416328269072	93
2	3716	1101.930343640609	92
2	3720	1103.155994418396	93
2	3721	1103.62587008757	92
2	3725	1104.734347861546	93
2	3726	1104.996319876066	92
2	3729	1106.711100089191	91
2	3733	1106.922760711409	92
2	3734	1108.629685982889	91
2	3737	1110.08349554596	90
2	3741	1111.340165326522	91
2	3742	1112.03639044018	90
2	3746	1112.279848534215	91
2	3748	1113.309844947276	92
2	3750	1113.502868838278	93
2	3751	1113.957584127612	92
2	3755	1114.467083564496	93
2	3756	1115.753460663758	92
2	3759	1117.077394402228	91
2	3763	1117.323492554866	92
2	3765	1117.942493289894	93
2	3766	1118.774068316273	92
2	3770	1118.993902627637	93
2	3771	1120.750192117333	92
2	3775	1121.759559985354	93
2	3776	1122.622972969912	92
2	3782	1123.662541396809	93
2	3783	1124.561495845966	92
2	3787	1124.990363353753	93
2	3789	1125.503346167013	94
2	3790	1126.477475032598	93
2	3794	1126.658808426137	94
2	3796	1127.544639759252	95
2	3797	1128.382659454473	94
2	3800	1130.102347182871	93
2	3804	1130.159834517223	94
2	3806	1131.381801430393	95
2	3807	1131.738884187506	94
2	3811	1131.959824502584	95
2	3812	1133.37478040477	94
2	3817	1135.155085346305	93
2	3821	1136.006234986893	94
2	3822	1137.035964385995	93
2	3825	1138.882588286528	92
2	3829	1139.597346189381	93
2	3830	1140.579767270589	92
2	3834	1141.449421448123	93
2	3836	1141.666387971819	94
2	3837	1142.538712623732	93
2	3841	1143.847733931007	94
2	3842	1144.31519189013	93
2	3846	1144.804024389447	94
2	3847	1145.778364150616	93
2	3851	1146.77853409806	94
2	3853	1146.876273026098	95
2	3855	1147.330348964821	96
2	3856	1147.651575672271	95
2	3860	1148.275956487576	96
2	3861	1149.621874708886	95
2	3864	1150.830873794126	94
2	3868	1150.999412684504	95
2	3869	1152.438987487199	94
2	3873	1153.614042698628	95
2	3874	1154.148603393713	94
2	3878	1154.604184058617	95
2	3879	1155.953192329237	94
2	3883	1156.012491217814	95
2	3884	1157.303016844595	94
2	3887	1158.722375988605	93
2	3891	1159.555805315183	94
2	3893	1160.135114323491	95
2	3894	1160.229542936402	94
2	3899	1161.783422419446	93
2	3903	1162.077869124355	94
2	3905	1162.304539465524	95
2	3906	1163.570299602317	94
2	3910	1164.018102640884	95
2	3912	1164.118347836513	96
2	3914	1165.276141915665	97
2	3915	1165.45012032708	96
2	3919	1165.483359479228	97
2	3921	1166.254218674204	98
2	3922	1167.045685306209	97
2	3926	1167.252710134887	98
2	3927	1168.72416349409	97
2	3931	1168.79722843868	98
2	3932	1170.231261889467	97
2	3935	1171.644701216573	96
2	3939	1171.819890717316	97
2	3941	1171.983621772331	98
2	3942	1173.363203207234	97
2	3946	1173.557370970407	98
2	3947	1174.597612092288	97
2	3951	1175.875692113265	98
2	3952	1176.560793717967	97
2	3955	1177.890919489802	96
2	3959	1178.611857309966	97
2	3961	1179.017992886993	98
2	3962	1179.170515404099	97
2	3965	1180.691462656313	96
2	3969	1180.846182507569	97
2	3971	1181.465652165602	98
2	3972	1182.241882285864	97
2	3976	1183.166344835822	98
2	3978	1184.125203498074	99
2	3979	1184.228475151786	98
2	3983	1184.732332408757	99
2	3984	1185.834984752366	98
2	3987	1187.727810854295	97
2	3991	1189.257449456095	98
2	3992	1189.373971664922	97
2	3995	1191.041453471983	96
2	3998	1192.321826506237	95
2	4002	1192.669722125637	96
2	4003	1193.700261518004	95
2	4007	1194.790115585731	96
2	4008	1194.998647098633	95
2	4012	1195.514075520553	96
2	4013	1196.466641811112	95
2	4017	1196.605289916803	96
2	4018	1197.948418044316	95
2	4022	1197.980632320978	96
2	4024	1198.319256887303	97
2	4025	1199.316086472402	96
2	4028	1201.291634854505	95
2	4032	1201.579189376023	96
2	4033	1202.658331443573	95
2	4036	1203.939418065938	94
2	4040	1204.157418661145	95
2	4041	1205.323571763019	94
2	4045	1206.297451701772	95
2	4046	1206.845920416358	94
2	4050	1207.40625932446	95
2	4052	1207.785120754799	96
2	4054	1208.318895587732	97
2	4055	1208.5475115793	96
2	4059	1209.692846283308	97
2	4060	1209.752793155069	96
2	4064	1209.854186211342	97
2	4066	1209.860989460456	98
2	4068	1210.218955967545	99
2	4070	1211.136437444226	100
2	4071	1211.230205950158	99
2	4075	1212.705629354515	100
2	4076	1212.853486813994	99
2	4079	1214.523652277531	98
2	4083	1214.569771812727	99
2	4084	1215.872705504315	98
2	4087	1217.295567372086	97
2	4090	1218.71016812289	96
2	4094	1219.057161796223	97
2	4095	1220.264538170601	96
2	4098	1222.079808942619	95
2	4102	1222.786471986432	96
2	4103	1223.500490015018	95
2	4107	1223.717803404125	96
2	4108	1225.469800560753	95
2	4112	1226.871980579919	96
2	4113	1227.117249673995	95
2	4117	1227.853253522292	96
2	4118	1228.502351344953	95
2	4121	1229.799102813395	94
2	4125	1229.967286184917	95
2	4127	1230.186913822489	96
2	4129	1231.32067409004	97
2	4130	1231.766388306225	96
2	4135	1233.033939181099	95
2	4139	1233.449026092413	96
2	4141	1233.474670592748	97
2	4143	1234.380573400079	98
2	4145	1234.691089536728	99
2	4146	1234.902464261296	98
2	4149	1236.438481904956	97
2	4153	1237.10150903363	98
2	4155	1237.299439379837	99
2	4156	1238.080199755745	98
2	4160	1238.900669962261	99
2	4162	1239.154117189434	100
2	4163	1239.779573847556	99
2	4167	1240.205755300944	100
2	4169	1240.585900420633	101
2	4170	1241.251767971755	100
2	4174	1241.484964139785	101
2	4176	1241.578894755866	102
2	4178	1242.090315746029	103
2	4179	1243.226583462038	102
2	4183	1244.045335012917	103
2	4184	1244.568971504101	102
2	4188	1245.054009453643	103
2	4189	1245.983832936005	102
2	4193	1246.563658656956	103
2	4194	1247.317335271665	102
2	4198	1247.533585904118	103
2	4199	1249.083675562048	102
2	4203	1249.201320593633	103
2	4204	1250.409091201069	102
2	4208	1251.447186386762	103
2	4209	1251.998072110133	102
2	4213	1252.535358420349	103
2	4214	1253.580078721994	102
2	4217	1254.925545959936	101
2	4220	1256.353647627325	100
2	4224	1258.024248699975	101
2	4225	1258.298352283069	100
2	4229	1259.173175624944	101
2	4230	1259.521509479188	100
2	4234	1259.611194781878	101
2	4236	1260.996061616741	102
2	4237	1261.478730492496	101
2	4240	1263.037604754062	100
2	4246	1263.638072625854	101
2	4248	1263.652932484686	102
2	4250	1263.867265494285	103
2	4251	1264.779935630614	102
2	4254	1266.617538886162	101
2	4257	1268.360056845861	100
2	4260	1269.787118752504	99
2	4264	1270.754888824353	100
2	4265	1271.060750873776	99
2	4269	1271.076032301854	100
2	4271	1271.951963446689	101
2	4273	1272.565784110822	102
2	4275	1272.584427169119	103
2	4277	1272.743052166466	104
2	4278	1273.01042024141	103
2	4281	1274.32502484584	102
2	4285	1274.334140271391	103
2	4286	1276.265678365917	102
2	4290	1277.774345435238	103
2	4291	1278.109177113899	102
2	4295	1278.453006330057	103
2	4296	1279.993037010186	102
2	4299	1281.843220705368	101
2	4303	1282.234679888476	102
2	4307	1283.334737188093	103
2	4308	1283.470415971257	102
2	4316	1284.576262475653	103
2	4319	1285.285812662184	102
2	4323	1285.452006702966	103
2	4325	1285.809050233903	104
2	4326	1286.678825274683	103
2	4330	1287.117945134135	104
2	4332	1287.818317562149	105
2	4334	1288.212855270171	106
2	4335	1288.533383458122	105
2	4339	1288.669850926585	106
2	4340	1290.256227198257	105
2	4344	1290.471576172019	106
2	4345	1291.589065148509	105
2	4349	1291.873130061345	106
2	4351	1292.031762071528	107
2	4353	1292.703721357331	108
2	4355	1293.060360613121	109
2	4356	1293.517332629315	108
2	4360	1293.588601389842	109
2	4361	1294.784257625989	108
2	4365	1296.132307159094	109
2	4366	1296.698520853012	108
2	4370	1296.857642832734	109
2	4372	1297.470567126232	110
2	4373	1297.974636121853	109
2	4377	1298.491877400826	110
2	4378	1299.201126978746	109
2	4382	1300.099295142376	110
2	4383	1300.754013907178	109
2	4387	1301.66191256438	110
2	4389	1301.873631659383	111
2	4390	1302.249734221412	110
2	4394	1303.440722617844	111
2	4395	1304.157252744598	110
2	4399	1305.240833747305	111
2	4400	1306.148306018127	110
2	4404	1306.623590611346	111
2	4405	1307.601209326288	110
2	4409	1308.154333342901	111
2	4410	1309.127375921993	110
2	4414	1310.606038712863	111
2	4415	1310.86498925501	110
2	4418	1312.411067368663	109
2	4421	1313.753969252869	108
2	4425	1313.865787220759	109
2	4427	1313.905738580865	110
2	4429	1314.677796510482	111
2	4432	1315.564533202923	110
2	4435	1317.027542279675	109
2	4439	1317.42143014725	110
2	4440	1318.460912124268	109
2	4444	1318.68593538529	110
2	4445	1320.036030894905	109
2	4449	1320.126546212947	110
2	4451	1320.309912633192	111
2	4452	1321.440347639113	110
2	4455	1323.416543923146	109
2	4458	1325.391479507289	108
2	4463	1327.382499638028	107
2	4466	1328.995488926783	106
2	4470	1329.093764057485	107
2	4472	1329.870163523868	108
2	4475	1330.869532779805	107
2	4478	1332.479102079399	106
2	4482	1332.517550673251	107
2	4484	1333.346884478707	108
2	4485	1334.080868696064	107
2	4489	1334.119025144807	108
2	4491	1334.786119778235	109
2	4492	1335.507774093762	108
2	4496	1336.536678731792	109
2	4498	1336.847762811616	110
2	4500	1337.217016690683	111
2	4501	1337.487960827552	110
2	4505	1338.350462601499	111
2	4506	1338.698631328359	110
2	4509	1340.24506398385	109
2	4513	1340.638225388887	110
2	4514	1342.14522709196	109
2	4518	1343.484243300235	110
2	4519	1343.744695464908	109
2	4523	1344.078240009781	110
2	4525	1344.302321533157	111
2	4526	1345.358898869729	110
2	4530	1346.598350345012	111
2	4531	1346.784517744011	110
2	4535	1347.355810653039	111
2	4536	1348.634219194962	110
2	4540	1349.191323967397	111
2	4541	1350.226953100613	110
2	4545	1350.721433369162	111
2	4547	1350.987918198317	112
2	4548	1352.082645135387	111
2	4552	1352.859178480398	112
2	4553	1353.505539393998	111
2	4557	1354.574980460599	112
2	4558	1355.080546794287	111
2	4562	1355.16322259042	112
2	4564	1355.929447384241	113
2	4566	1356.034307008185	114
2	4567	1356.71259753482	113
2	4571	1356.93082048533	114
2	4573	1357.761071641693	115
2	4574	1358.235733059249	114
2	4578	1359.70910524099	115
2	4579	1360.09025069458	114
2	4583	1360.599291168389	115
2	4584	1361.312938299417	114
2	4587	1363.114218741111	113
2	4591	1363.74649573192	114
2	4592	1364.859850625522	113
2	4595	1366.505344643645	112
2	4599	1366.707047931835	113
2	4601	1366.804578680922	114
2	4602	1368.369731230117	113
2	4606	1369.05325382077	114
2	4607	1370.210183984056	113
2	4611	1371.715490005673	114
2	4612	1372.202942670151	113
2	4616	1372.852336241933	114
2	4618	1374.101798631811	115
2	4619	1374.108084744229	114
2	4623	1375.291234852962	115
2	4624	1375.373644958823	114
2	4628	1376.908043640722	115
2	4629	1377.302239391967	114
2	4633	1377.689283858207	115
2	4635	1377.759144672542	116
2	4636	1378.699795899554	115
2	4640	1379.854290435379	116
2	4641	1380.54050487542	115
2	4645	1381.321413411691	116
2	4646	1382.171768976203	115
2	4652	1382.728621234105	116
2	4653	1383.654588731951	115
2	4657	1383.81466004878	116
2	4659	1384.395204047597	117
2	4660	1385.260101828552	116
2	4664	1385.885354691879	117
2	4666	1386.456102561597	118
2	4667	1386.947600510917	117
2	4671	1388.447800958944	118
2	4672	1388.594061758756	117
2	4676	1389.088240419148	118
2	4677	1390.427659371696	117
2	4680	1391.658092804081	116
2	4684	1391.745310098056	117
2	4686	1392.400811543967	118
2	4688	1392.606137981454	119
2	4689	1393.61040338689	118
2	4692	1395.46605067031	117
2	4696	1395.642925341065	118
2	4697	1397.37072133237	117
2	4700	1398.866180867902	116
2	4704	1399.992091032235	117
2	4706	1400.464254526845	118
2	4707	1400.524254498645	117
2	4710	1402.456005960345	116
2	4714	1402.852957712815	117
2	4715	1403.728740884937	116
2	4719	1403.860060715621	117
2	4720	1405.668254474379	116
2	4724	1405.858708532315	117
2	4725	1407.234909024477	116
2	4729	1407.269407009602	117
2	4730	1408.755748694964	116
2	4736	1409.920331911137	117
2	4737	1410.724112505481	116
2	4741	1411.160369022966	117
2	4742	1412.638824435898	116
2	4746	1412.764829515311	117
2	4747	1414.053971117192	116
2	4751	1414.280924420178	117
2	4752	1416.029210103692	116
2	4756	1417.22332645397	117
2	4758	1417.236602503334	118
2	4759	1417.332487664202	117
2	4763	1417.429981919034	118
2	4765	1418.991415010222	119
2	4766	1419.152598386647	118
2	4770	1419.15780912202	119
2	4772	1419.347203519693	120
2	4773	1420.861378243396	119
2	4777	1421.13625914051	120
2	4779	1421.811981098685	121
2	4780	1422.25535917321	120
2	4784	1422.929962968035	121
2	4785	1424.202983379939	120
2	4789	1425.917863410394	121
2	4790	1425.924056922288	120
2	4794	1426.859193073818	121
2	4795	1427.692571922408	120
2	4798	1429.314776566268	119
2	4802	1429.422361878618	120
2	4804	1430.488413299425	121
2	4805	1430.723783281089	120
2	4809	1431.272527453894	121
2	4811	1432.134283343407	122
2	4812	1432.245148306356	121
2	4816	1433.151039949173	122
2	4817	1433.785341520996	121
2	4820	1435.099565962159	120
2	4824	1435.462522960558	121
2	4825	1436.936226733045	120
2	4828	1438.209035857038	119
2	4832	1439.056955458145	120
2	4833	1439.838737424665	119
2	4837	1440.240271394605	120
2	4839	1441.285037761312	121
2	4840	1441.420691351981	120
2	4844	1441.621611386836	121
2	4845	1443.242308544011	120
2	4849	1444.112726991921	121
2	4850	1444.737372189404	120
2	4854	1445.414741293218	121
2	4856	1446.233232913269	122
2	4857	1446.589073781872	121
2	4861	1447.058949022652	122
2	4862	1448.428278261067	121
2	4866	1449.914323118002	122
2	4868	1450.032132560672	123
2	4870	1450.121461296331	124
2	4871	1450.252036179432	123
2	4875	1451.828361114731	124
2	4876	1451.943423015082	123
2	4880	1452.202631350721	124
2	4881	1453.314326979609	123
2	4884	1454.948103142919	122
2	4888	1454.963957911841	123
2	4890	1455.197655586442	124
2	4891	1456.649701573158	123
2	4896	1458.097586392815	122
2	4900	1458.268261181686	123
2	4901	1459.762006865273	122
2	4905	1460.267888152451	123
2	4907	1460.361204863289	124
2	4909	1460.945695226652	125
2	4911	1461.292874918021	126
2	4912	1461.612200721743	125
2	4915	1463.478093428927	124
2	4918	1465.125604165176	123
2	4922	1466.225346098687	124
2	4924	1466.89784504385	125
2	4925	1467.029891719686	124
2	4929	1467.39686871326	125
2	4930	1468.689716223644	124
2	4933	1470.375165046396	123
2	4940	1471.583547129872	122
2	4944	1471.914216334884	123
2	4946	1473.189968161384	124
2	4947	1473.271015256847	123
2	4950	1475.220482097956	122
2	4954	1476.118690957583	123
2	4955	1476.866592444311	122
2	4959	1478.190701317502	123
2	4960	1478.574007295649	122
2	4963	1480.013165967743	121
2	4967	1480.343112542905	122
2	4968	1481.943912582862	121
2	4972	1481.979563102876	122
2	4974	1482.584791339515	123
2	4975	1483.419430093112	122
2	4978	1484.764140388387	121
2	4982	1486.447702487117	122
2	4984	1486.616961271323	123
2	4985	1486.619589373487	122
2	4989	1486.649453228234	123
2	4991	1486.83761970441	124
2	4992	1488.59246522786	123
2	4998	1489.445176080653	124
2	5000	1489.546181379808	125
2	5001	1489.872880724463	124
2	5006	1491.432125952113	123
2	5009	1492.985046128202	122
2	5012	1494.666173921171	121
2	5016	1494.702946387481	122
2	5018	1495.403057438036	123
2	5019	1496.319112830068	122
2	5023	1498.111344184175	123
2	5025	1498.153141875529	124
2	5026	1498.272675295378	123
2	5030	1499.48531247908	124
2	5032	1499.901479327641	125
2	5033	1499.982322727534	124
2	5036	1501.197794043663	123
2	5040	1501.200039272432	124
2	5042	1501.639811175255	125
2	5044	1501.774328472586	126
2	5045	1502.850273142214	125
2	5049	1503.403763562134	126
2	5050	1504.257733018714	125
2	5054	1504.569993277976	126
2	5056	1504.633465758127	127
2	5057	1506.103897454049	126
2	5061	1506.300570956506	127
2	5063	1506.708195754873	128
2	5064	1507.694183566067	127
2	5068	1508.635057469021	128
2	5070	1508.959352858648	129
2	5071	1509.108439221251	128
2	5074	1510.627581403609	127
2	5078	1511.144494107384	128
2	5079	1511.922759256716	127
2	5083	1513.018500460651	128
2	5085	1513.168733410007	129
2	5086	1513.211457538064	128
2	5090	1513.446194441859	129
2	5094	1514.114647747868	130
2	5095	1514.565005230549	129
2	5099	1515.330946922903	130
2	5100	1516.211296491529	129
2	5103	1517.747610859218	128
2	5106	1519.712921712751	127
2	5109	1521.046731575596	126
2	5113	1521.927258885836	127
2	5115	1522.76780606111	128
2	5116	1522.778825867752	127
2	5120	1523.115616727514	128
2	5122	1524.373439356632	129
2	5123	1524.406515391188	128
2	5127	1524.720266148626	129
2	5129	1524.898949892453	130
2	5131	1525.510013582277	131
2	5132	1525.609427720884	130
2	5136	1526.627621449453	131
2	5137	1527.268811262043	130
2	5141	1527.729098039718	131
2	5143	1528.075156980627	132
2	5145	1528.339671751206	133
2	5146	1528.951546365225	132
2	5149	1530.566823097707	131
2	5153	1530.937933105559	132
2	5155	1531.201196307997	133
2	5156	1531.852292497845	132
2	5159	1533.417600239643	131
2	5163	1534.76118882816	132
2	5164	1534.860522390545	131
2	5168	1535.466633688472	132
2	5169	1536.726353463919	131
2	5173	1536.733096420525	132
2	5175	1536.814833611988	133
2	5177	1537.493439340787	134
2	5179	1537.638826916298	135
2	5180	1538.406418241576	134
2	5183	1540.140738276035	133
2	5186	1541.704993441157	132
2	5192	1542.51324910129	133
2	5194	1543.267284742915	134
2	5195	1543.55633526893	133
2	5198	1544.803043498487	132
2	5202	1545.096333033573	133
2	5203	1546.066778730617	132
2	5207	1546.594665428269	133
2	5208	1547.588050779344	132
2	5211	1549.403196410479	131
2	5215	1550.347924998738	132
2	5216	1551.054075425694	131
2	5219	1552.613431143778	130
2	5224	1554.604231496731	129
2	5228	1554.98053372254	130
2	5229	1556.239281228388	129
2	5232	1558.030336775648	128
2	5235	1559.262497096153	127
2	5239	1560.214119213148	128
2	5241	1560.373187765656	129
2	5243	1560.472280539087	130
2	5244	1560.800398354994	129
2	5248	1561.04976182097	130
2	5249	1562.408576286973	129
2	5253	1562.54246664661	130
2	5255	1563.608359068313	131
2	5257	1563.881657550158	132
2	5258	1564.273850420134	131
2	5262	1564.915653070014	132
2	5264	1565.5419557145	133
2	5265	1565.966227798739	132
2	5268	1567.181142527999	131
2	5271	1569.17448696682	130
2	5275	1569.738646426581	131
2	5277	1570.237131748181	132
2	5278	1570.730445068718	131
2	5282	1571.295856590639	132
2	5285	1572.621801883184	131
2	5289	1574.182968249398	132
2	5290	1574.416743786648	131
2	5294	1575.275481508431	132
2	5295	1576.406749962658	131
2	5299	1576.865660191089	132
2	5300	1578.273213662967	131
2	5304	1578.494090947418	132
2	5306	1578.498947135143	133
2	5307	1580.078943914376	132
2	5311	1580.252812723477	133
2	5312	1581.476791276239	132
2	5316	1582.249999867935	133
2	5318	1582.515250835133	134
2	5319	1582.932734698445	133
2	5323	1583.888311260269	134
2	5324	1584.640451954693	133
2	5328	1585.583238712681	134
2	5329	1586.388111984559	133
2	5333	1587.226743554724	134
2	5334	1587.718964340367	133
2	5338	1588.597132597168	134
2	5340	1589.163381657362	135
2	5341	1589.393235460312	134
2	5345	1590.093889082236	135
2	5346	1590.845583968625	134
2	5349	1592.691309600898	133
2	5352	1594.407648730666	132
2	5355	1595.62167254185	131
2	5359	1596.768646107593	132
2	5360	1597.512984294274	131
2	5363	1598.926865446956	130
2	5367	1599.574368687092	131
2	5369	1599.853152819563	132
2	5370	1600.444557130911	131
2	5374	1600.567021474134	132
2	5376	1600.868265335196	133
2	5378	1601.493665494316	134
2	5379	1601.981862966732	133
2	5382	1603.688179670104	132
2	5386	1605.03006353624	133
2	5387	1605.615675535442	132
2	5390	1607.330272112244	131
2	5394	1607.380471257589	132
2	5395	1608.975745215469	131
2	5398	1610.306746153736	130
2	5402	1611.823564961459	131
2	5403	1611.853427121618	130
2	5407	1612.435203939468	131
2	5409	1612.831390512353	132
2	5411	1613.271176435348	133
2	5412	1613.62628358511	132
2	5416	1613.639826343805	133
2	5418	1613.849694789181	134
2	5419	1615.079871101135	133
2	5422	1616.633700031617	132
2	5425	1618.077094631286	131
2	5429	1618.832172786935	132
2	5430	1619.535299709269	131
2	5433	1621.025120722332	130
2	5437	1621.661415048288	131
2	5439	1621.68745009224	132
2	5441	1622.688501321636	133
2	5442	1623.022396046125	132
2	5446	1623.137822952036	133
2	5447	1624.717391867951	132
2	5450	1625.95801677724	131
2	5454	1626.275210887269	132
2	5456	1626.416401878083	133
2	5457	1627.43729472553	132
2	5461	1628.319602600889	133
2	5463	1628.497454877626	134
2	5464	1629.20229558406	133
2	5468	1629.208821444815	134
2	5469	1630.813170303233	133
2	5473	1631.885457104503	134
2	5476	1632.592411173336	133
2	5480	1633.210610870088	134
2	5481	1633.900577850655	133
2	5485	1635.704603305552	134
2	5486	1635.883489330501	133
2	5490	1637.146052820437	134
2	5491	1637.581374528647	133
2	5495	1637.895797609492	134
2	5497	1638.692368488263	135
2	5498	1639.206793218121	134
2	5502	1639.482371351387	135
2	5504	1640.198121297585	136
2	5505	1641.163933049344	135
2	5509	1641.71580816841	136
2	5511	1642.581581888847	137
2	5512	1642.784448985026	136
2	5516	1643.506294052224	137
2	5517	1644.628512784854	136
2	5521	1644.724777327198	137
2	5522	1646.010127506793	136
2	5525	1647.891613482513	135
2	5531	1648.638349543017	136
2	5533	1649.062290384594	137
2	5535	1649.263384554966	138
2	5537	1649.47903745983	139
2	5538	1649.642313250915	138
2	5542	1649.839837802675	139
2	5544	1650.918708378248	140
2	5545	1651.084871143491	139
2	5549	1652.342801958209	140
2	5550	1652.517159105667	139
2	5554	1652.583431223594	140
2	5556	1652.589996745743	141
2	5558	1653.388396004954	142
2	5559	1654.500199647077	141
2	5562	1656.366779799589	140
2	5566	1656.936470834467	141
2	5568	1657.44342917124	142
2	5569	1657.979018430614	141
2	5573	1659.131633530093	142
2	5574	1659.978190466032	141
2	5577	1661.319307383538	140
2	5581	1661.487057716706	141
2	5583	1661.794871608691	142
2	5584	1662.617821867221	141
2	5588	1662.760079680019	142
2	5589	1664.297018953987	141
2	5593	1665.939289415408	142
2	5594	1665.961475483157	141
2	5598	1666.883131577501	142
2	5601	1667.827264270947	141
2	5605	1667.954361997235	142
2	5606	1669.371871544623	141
2	5610	1669.83578884266	142
2	5611	1670.644494299979	141
2	5614	1671.870535059662	140
2	5620	1673.000128600713	141
2	5622	1673.440149737377	142
2	5623	1673.75327033961	141
2	5629	1674.87025972937	142
2	5630	1675.161098760383	141
2	5634	1675.952323064279	142
2	5635	1676.738182188773	141
2	5639	1677.750376062903	142
2	5640	1678.006961262615	141
2	5643	1679.563166168535	140
2	5647	1680.600591376072	141
2	5648	1681.5394379778	140
2	5651	1682.8819721386	139
2	5655	1683.039901702384	140
2	5657	1683.47135978511	141
2	5658	1684.129045289399	140
2	5662	1684.231419792062	141
2	5663	1685.873297381977	140
2	5667	1686.265800209219	141
2	5668	1687.736875742132	140
2	5672	1688.300736685056	141
2	5673	1689.247285186703	140
2	5677	1690.702260325229	141
2	5678	1691.143812053854	140
2	5681	1692.812969576585	139
2	5684	1694.215827355551	138
2	5688	1695.876060085158	139
2	5689	1695.887943648192	138
2	5692	1697.344491209852	137
2	5695	1699.014261207188	136
2	5699	1699.213426771025	137
2	5701	1699.394963184241	138
2	5703	1699.422870885464	139
2	5705	1699.596637548956	140
2	5706	1700.640358538384	139
2	5710	1701.054876679093	140
2	5711	1701.860104738379	139
2	5714	1703.321348124387	138
2	5718	1704.63009584148	139
2	5719	1704.874131036381	138
2	5723	1705.75690822756	139
2	5725	1706.075111229102	140
2	5726	1706.577113114315	139
2	5730	1706.58007542764	140
2	5732	1707.024451712084	141
2	5733	1708.499959128554	140
2	5737	1708.738935538617	141
2	5739	1709.161613417895	142
2	5741	1709.343286283797	143
2	5743	1709.561416416125	144
2	5745	1709.563038140704	145
2	5747	1709.636817205574	146
2	5748	1710.216827913764	145
2	5752	1710.233714748533	146
2	5753	1711.494698502141	145
2	5756	1713.165292309429	144
2	5760	1713.465842933712	145
2	5761	1714.584650019016	144
2	5765	1715.629283993222	145
2	5766	1715.801537667047	144
2	5770	1716.4832555558	145
2	5771	1717.06814029498	144
2	5774	1718.510309564341	143
2	5778	1719.409315012942	144
2	5779	1719.815614264291	143
2	5783	1719.891428879337	144
2	5784	1721.740848259274	143
2	5790	1722.790201258136	144
2	5791	1723.036574371364	143
2	5795	1723.893983669674	144
2	5796	1724.663125642967	143
2	5800	1725.569132602137	144
2	5801	1726.101724943724	143
2	5804	1727.384365105276	142
2	5808	1729.054891424013	143
2	5809	1729.345278596339	142
2	5812	1730.598564086315	141
2	5816	1730.732906417582	142
2	5818	1731.096654769099	143
2	5819	1732.585042545032	142
2	5822	1734.528558111023	141
2	5826	1735.935127358869	142
2	5827	1736.382464508917	141
2	5831	1736.820311421585	142
2	5832	1738.262940378319	141
2	5836	1738.371527768868	142
2	5838	1738.749885372485	143
2	5839	1740.145500015486	142
2	5843	1740.320655933388	143
2	5844	1741.429294157792	142
2	5848	1742.843125007131	143
2	5849	1743.073585120794	142
2	5853	1743.684231748875	143
2	5854	1744.808043536936	142
2	5858	1745.611264703252	143
2	5860	1746.62323829756	144
2	5861	1746.68034632003	143
2	5865	1747.381661918238	144
2	5867	1747.757872229683	145
2	5868	1748.404419626874	144
2	5872	1748.831654421819	145
2	5873	1749.64569140805	144
2	5877	1750.684497037318	145
2	5878	1751.286122860034	144
2	5882	1751.784884332048	145
2	5884	1752.07015728481	146
2	5885	1752.537537842263	145
2	5889	1752.620187264066	146
2	5891	1752.694111303684	147
2	5893	1753.124440773189	148
2	5894	1753.955329911616	147
2	5898	1754.19348491341	148
2	5899	1755.492971015554	147
2	5903	1755.906989572082	148
2	5904	1756.871355697159	147
2	5908	1757.715327128023	148
2	5909	1758.596192694847	147
2	5913	1758.961443918343	148
2	5914	1759.811019313541	147
2	5917	1761.287539385837	146
2	5920	1762.836139970106	145
2	5924	1764.626662477119	146
2	5925	1764.70416150747	145
2	5929	1764.989796915229	146
2	5931	1766.279965763949	147
2	5932	1766.415729259347	146
2	5935	1767.937407866885	145
2	5939	1768.375362885357	146
2	5941	1768.555860781071	147
2	5942	1769.744536298906	146
2	5946	1770.733682639325	147
2	5947	1771.110833030773	146
2	5951	1772.173255198812	147
2	5952	1773.065033235421	146
2	5956	1773.111074770444	147
2	5957	1774.589188909178	146
2	5961	1774.835272255568	147
2	5964	1776.416286959519	146
2	5968	1777.763326698527	147
2	5969	1778.040989102816	146
2	5974	1779.388505697084	145
2	5978	1779.873060242183	146
2	5979	1780.881416122449	145
2	5983	1781.66870571742	146
2	5985	1781.780382047308	147
2	5986	1782.316037409586	146
2	5990	1782.460058353759	147
2	5992	1782.499701589537	148
2	5994	1782.7623651133	149
2	5996	1782.861869129426	150
2	5997	1783.605298074913	149
2	6001	1783.76553452658	150
2	6002	1784.808370527272	149
2	6005	1786.052377160285	148
2	6008	1787.316958608125	147
2	6012	1787.417082806522	148
2	6014	1788.290159152771	149
2	6016	1788.620512611505	150
2	6017	1788.753470398132	149
2	6021	1789.559766368988	150
2	6023	1789.696704259778	151
2	6024	1790.031183974836	150
2	6028	1791.463546672457	151
2	6030	1791.579020671638	152
2	6031	1791.592705783267	151
2	6035	1791.700288112483	152
2	6037	1793.017828019738	153
2	6038	1793.567641701755	152
2	6042	1794.021544915326	153
2	6044	1795.193372023013	154
2	6045	1795.558779103328	153
2	6049	1795.957257178088	154
2	6050	1797.274489472453	153
2	6054	1798.488914932819	154
2	6055	1798.576395933722	153
2	6059	1799.175660088383	154
2	6061	1799.75182950572	155
2	6062	1800.065532261339	154
2	6066	1800.089102577483	155
2	6067	1801.273221522217	154
2	6070	1802.590555371178	153
2	6074	1803.418514226987	154
2	6076	1803.571162596242	155
2	6077	1804.182276178358	154
2	6081	1805.329781607596	155
2	6082	1805.994576751089	154
2	6085	1807.548964137977	153
2	6089	1807.750276075396	154
2	6090	1809.500566372855	153
2	6096	1810.413377681113	154
2	6097	1810.777294390856	153
2	6100	1812.415203178695	152
2	6104	1812.428158036015	153
2	6105	1814.208090031727	152
2	6109	1815.195153890063	153
2	6110	1815.808524536176	152
2	6114	1816.918286923747	153
2	6116	1817.152035431847	154
2	6117	1817.349437632619	153
2	6121	1817.681567713173	154
2	6122	1819.11916051863	153
2	6125	1820.382845403648	152
2	6128	1822.152059661991	151
2	6132	1822.266165784937	152
2	6133	1823.847636587194	151
2	6137	1825.381439455131	152
2	6138	1825.507288804113	151
2	6142	1825.97324656538	152
2	6143	1827.313302974611	151
2	6147	1827.832351207289	152
2	6148	1828.601586702674	151
2	6151	1829.888137324362	150
2	6155	1830.955726496726	151
2	6158	1831.344942214734	150
2	6162	1831.966275854064	151
2	6163	1833.25308749324	150
2	6167	1834.438730120691	151
2	6168	1834.875779693036	150
2	6172	1834.918192908324	151
2	6174	1835.249335707926	152
2	6175	1836.375404725431	151
2	6179	1837.66873572714	152
2	6180	1837.964339197821	151
2	6184	1838.192690498649	152
2	6185	1839.564286536559	151
2	6189	1839.759939004089	152
2	6191	1840.072626589902	153
2	6192	1840.8557007123	152
2	6196	1840.926059559492	153
2	6198	1841.705235947144	154
2	6199	1842.169648520856	153
2	6203	1843.079432940898	154
2	6204	1843.641630150213	153
2	6208	1844.003779597516	154
2	6210	1845.321786456658	155
2	6211	1845.53525880093	154
2	6215	1846.362248247417	155
2	6219	1846.794192068584	156
2	6220	1847.231707591398	155
2	6224	1847.645944689718	156
2	6226	1847.886281702721	157
2	6227	1848.552419664359	156
2	6231	1849.165110937809	157
2	6233	1849.470649054988	158
2	6235	1850.052540255353	159
2	6236	1850.399823731764	158
2	6240	1852.100804564999	159
2	6241	1852.16137135925	158
2	6244	1853.650509511514	157
2	6248	1854.187844196901	158
2	6250	1854.751741195579	159
2	6251	1855.117550597547	158
2	6254	1856.619059083818	157
2	6258	1856.768380856862	158
2	6260	1857.204737289491	159
2	6261	1858.076960730946	158
2	6264	1859.971691639556	157
2	6268	1860.741984889525	158
2	6269	1861.787721292882	157
2	6273	1862.649455611724	158
2	6274	1863.727456616818	157
2	6278	1864.26369074919	158
2	6279	1864.987913793533	157
2	6283	1865.253131856413	158
2	6284	1866.558266235164	157
2	6288	1866.646256916638	158
2	6290	1867.571471891718	159
2	6292	1867.83441956659	160
2	6293	1867.856934289655	159
2	6297	1867.890471452712	160
2	6298	1869.749288506827	159
2	6302	1869.851851328305	160
2	6303	1871.744503754957	159
2	6306	1873.501626936181	158
2	6310	1873.648133406996	159
2	6314	1875.112409194936	160
2	6315	1875.155102038777	159
2	6318	1876.494837884998	158
2	6322	1876.556479342826	159
2	6324	1878.108885252741	160
2	6325	1878.26182198601	159
2	6329	1879.698766258919	160
2	6330	1879.885801506063	159
2	6334	1881.551116546288	160
2	6335	1881.617449873706	159
2	6339	1882.475774070336	160
2	6341	1882.642508937347	161
2	6342	1883.508065959459	160
2	6346	1885.189129064969	161
2	6347	1885.214458431324	160
2	6350	1886.446546854844	159
2	6353	1887.91525426062	158
2	6356	1889.305330346918	157
2	6360	1890.480264093871	158
2	6361	1890.617814361884	157
2	6365	1891.291699060574	158
2	6366	1892.158316453754	157
2	6370	1892.441507232951	158
2	6371	1893.485187125973	157
2	6375	1893.561283186682	158
2	6377	1894.391044235087	159
2	6378	1894.757875565461	158
2	6381	1896.530811447672	157
2	6385	1897.910051073668	158
2	6387	1897.910972312841	159
2	6388	1898.338532349303	158
2	6392	1900.026742077861	159
2	6394	1900.21488598714	160
2	6395	1900.29522136154	159
2	6399	1900.749998981717	160
2	6401	1901.131591283441	161
2	6402	1902.047029828675	160
2	6406	1902.621556042103	161
2	6407	1903.373965798713	160
2	6410	1905.049005924001	159
2	6414	1905.105211929098	160
2	6416	1905.365255771241	161
2	6418	1905.636848854304	162
2	6421	1906.451539004057	161
2	6425	1906.970094200516	162
2	6426	1908.084134371414	161
2	6429	1909.58303603439	160
2	6433	1910.262219847367	161
2	6435	1910.481650678884	162
2	6436	1910.96709222088	161
2	6440	1912.316126212057	162
2	6441	1912.897749101952	161
2	6444	1914.227911819727	160
2	6448	1915.386757881581	161
2	6449	1916.035584618547	160
2	6453	1917.198183615781	161
2	6454	1917.332508802437	160
2	6458	1917.912176192137	161
2	6459	1918.599564469256	160
2	6463	1919.50621172088	161
2	6464	1920.433845401019	160
2	6468	1921.768418554688	161
2	6469	1922.256257363059	160
2	6473	1922.787679456308	161
2	6474	1924.083439068519	160
2	6478	1924.77545538734	161
2	6480	1924.99542182322	162
2	6481	1925.650113947154	161
2	6485	1925.669929346943	162
2	6486	1927.506605862663	161
2	6490	1927.798710014308	162
2	6492	1928.223363723064	163
2	6494	1928.86744973913	164
2	6495	1929.160376265854	163
2	6499	1930.520629698164	164
2	6501	1930.630969185316	165
2	6502	1930.779526097723	164
2	6506	1931.794134399258	165
2	6507	1932.2819811024	164
2	6510	1933.626718159043	163
2	6514	1934.099986321297	164
2	6516	1934.866984146107	165
2	6519	1935.212594839954	164
2	6523	1935.948606934967	165
2	6524	1936.742185481847	164
2	6527	1938.156530920253	163
2	6531	1938.670781693208	164
2	6533	1939.256139848771	165
2	6534	1939.728665749938	164
2	6537	1941.278480691113	163
2	6541	1942.133223694552	164
2	6542	1942.591568597429	163
2	6546	1943.471702426335	164
2	6548	1943.621989032122	165
2	6549	1944.41025457459	164
2	6552	1946.205230836779	163
2	6556	1947.145712688412	164
2	6557	1948.022089897491	163
2	6561	1948.068885778973	164
2	6563	1948.292575274477	165
2	6564	1949.795537628442	164
2	6568	1949.922504128324	165
2	6569	1951.516401141345	164
2	6572	1952.933045486196	163
2	6576	1953.453368382767	164
2	6578	1953.835395836611	165
2	6580	1953.847057620286	166
2	6581	1954.223372430562	165
2	6585	1954.670836986749	166
2	6586	1955.996317360385	165
2	6590	1957.48765768845	166
2	6591	1957.771812862551	165
2	6594	1959.397624913251	164
2	6598	1959.811471072834	165
2	6600	1960.573777586917	166
2	6601	1961.007456717661	165
2	6605	1961.771633987502	166
2	6607	1962.421333252826	167
2	6608	1962.958988139427	166
2	6611	1964.827574679835	165
2	6614	1966.545695288873	164
2	6618	1966.612208011774	165
2	6619	1968.053143991924	164
2	6623	1968.236771840619	165
2	6625	1968.539445155356	166
2	6626	1969.31660459379	165
2	6630	1969.64499186413	166
2	6632	1969.652379896436	167
2	6633	1970.52347050628	166
2	6637	1972.171936244696	167
2	6638	1972.279628184087	166
2	6642	1972.767084698041	167
2	6643	1973.902683354191	166
2	6647	1974.681799890046	167
2	6648	1975.630578531533	166
2	6652	1975.708561354918	167
2	6653	1976.882693464145	166
2	6657	1976.944714722546	167
2	6658	1978.531949840695	166
2	6661	1980.076263694302	165
2	6664	1981.999038259522	164
2	6667	1983.470853281044	163
2	6671	1984.550800045355	164
2	6672	1985.136994155147	163
2	6675	1986.501082119928	162
2	6679	1986.704867676883	163
2	6680	1988.408390627639	162
2	6684	1989.019828576905	163
2	6685	1990.229035227583	162
2	6689	1991.095738572582	163
2	6690	1991.860952391313	162
2	6693	1993.218148871535	161
2	6697	1993.4175314996	162
2	6699	1994.097377224602	163
2	6701	1994.478705889515	164
2	6702	1994.926711297618	163
2	6706	1996.447559667079	164
2	6708	1996.63256540741	165
2	6709	1996.830714277388	164
2	6713	1997.410852372885	165
2	6715	1998.109298206729	166
2	6716	1998.729890150787	165
2	6719	2000.666252231808	164
2	6723	2002.255147697135	165
2	6724	2002.55589276685	164
2	6728	2003.467808166389	165
2	6729	2003.883499684395	164
2	6733	2004.995932075773	165
2	6734	2005.20209444	164
2	6737	2007.160214579502	163
2	6741	2007.42837271995	164
2	6745	2007.924759455251	165
2	6747	2008.278005675184	166
2	6749	2008.433767978888	167
2	6750	2008.568726087758	166
2	6753	2010.346595510119	165
2	6757	2010.598148289844	166
2	6759	2011.434962164739	167
2	6760	2011.581217469857	166
2	6764	2011.731168354993	167
2	6766	2012.109327037378	168
2	6768	2012.257542981779	169
2	6769	2013.470511115552	168
2	6773	2014.780285442468	169
2	6774	2014.820060917013	168
2	6778	2015.866824303787	169
2	6779	2016.311717125796	168
2	6783	2017.179785917933	169
2	6784	2017.880067020864	168
2	6787	2019.570583166391	167
2	6791	2021.194413184905	168
2	6792	2021.396293864794	167
2	6795	2022.999517532088	166
2	6799	2024.336295609457	167
2	6800	2024.847623202041	166
2	6803	2026.303749941498	165
2	6807	2026.385734165787	166
2	6808	2027.843156098224	165
2	6812	2028.388422155827	166
2	6814	2029.194875723464	167
2	6815	2029.52590895614	166
2	6819	2030.043156766423	167
2	6821	2030.291412606655	168
2	6823	2030.321867733426	169
2	6824	2031.181956391804	168
2	6828	2032.251844606364	169
2	6829	2032.763320930511	168
2	6833	2032.958179034773	169
2	6834	2034.265949816838	168
2	6838	2034.580400531684	169
2	6839	2035.952128453203	168
2	6843	2036.033890727043	169
2	6844	2037.579289381415	168
2	6848	2037.846423196436	169
2	6850	2038.04851806024	170
2	6851	2038.828917852439	169
2	6855	2039.088826134213	170
2	6856	2040.444072838895	169
2	6860	2041.136232337099	170
2	6861	2042.076565277971	169
2	6865	2042.75411677961	170
2	6866	2043.674947384208	169
2	6870	2044.596651775933	170
2	6871	2045.118439884878	169
2	6875	2045.733747801181	170
2	6877	2046.102282959985	171
2	6878	2046.617621107049	170
2	6881	2048.59609633407	169
2	6885	2049.919600863527	170
2	6886	2050.076372311659	169
2	6890	2050.598866966031	170
2	6892	2051.362613190772	171
2	6893	2051.940347518049	170
2	6897	2052.392596751747	171
2	6898	2053.435383261204	170
2	6901	2054.862507272907	169
2	6904	2056.540087554068	168
2	6907	2058.246933156834	167
2	6911	2059.640483855159	168
2	6912	2059.921874137991	167
2	6915	2061.865421121963	166
2	6919	2062.855489993489	167
2	6920	2063.716207999759	166
2	6924	2063.931039595968	167
2	6926	2064.989348185818	168
2	6927	2065.489868380711	167
2	6930	2066.995486175292	166
2	6934	2067.804436516495	167
2	6936	2067.814314162772	168
2	6938	2067.818627219442	169
2	6939	2068.653038940043	168
2	6943	2069.326144703694	169
2	6945	2069.775413121857	170
2	6946	2070.206566323549	169
2	6949	2071.876477813185	168
2	6952	2073.16505891534	167
2	6955	2074.935208506719	166
2	6959	2075.142597083323	167
2	6961	2075.520221620907	168
2	6963	2076.077600436639	169
2	6965	2076.225256446064	170
2	6966	2076.254592416272	169
2	6970	2077.184636646402	170
2	6973	2077.972793178656	169
2	6976	2079.560298176692	168
2	6980	2081.089597124365	169
2	6981	2081.150367744849	168
2	6985	2081.262634441547	169
2	6986	2082.760175114707	168
2	6989	2084.17461351438	167
2	6993	2084.281430168829	168
2	6995	2085.312480208387	169
2	6996	2085.486390148127	168
2	7000	2085.993611654135	169
2	7001	2086.913672990003	168
2	7005	2088.103732645033	169
2	7006	2088.769963420765	168
2	7010	2089.526400388383	169
2	7012	2090.22638606696	170
2	7013	2090.576792529994	169
2	7017	2091.064659233349	170
2	7018	2092.140453820327	169
2	7021	2093.561594838487	168
2	7025	2094.107231605027	169
2	7026	2095.196116100276	168
2	7030	2095.60913949201	169
2	7032	2095.943887712963	170
2	7033	2097.033826244833	169
2	7037	2097.209994715362	170
2	7039	2097.672572860631	171
2	7040	2098.57264992504	170
2	7044	2099.787873675885	171
2	7046	2100.025168472409	172
2	7047	2100.324720678316	171
2	7051	2101.020055669017	172
2	7053	2101.185560361586	173
2	7054	2101.857532480755	172
2	7058	2102.13996277517	173
2	7060	2102.166488543864	174
2	7062	2103.039140571778	175
2	7064	2103.577146161779	176
2	7065	2103.814240196929	175
2	7069	2104.037765646172	176
2	7070	2105.552610087604	175
2	7074	2106.575561925957	176
2	7076	2106.765216703797	177
2	7078	2107.277888048531	178
2	7079	2107.286269735382	177
2	7083	2107.441116418581	178
2	7084	2108.954233663366	177
2	7088	2109.215265685803	178
2	7089	2110.341444528126	177
2	7093	2110.961583884049	178
2	7094	2112.306478964933	177
2	7098	2113.087928705381	178
2	7099	2114.0661262559	177
2	7102	2115.357672240608	176
2	7105	2116.778502499894	175
2	7109	2116.871939277683	176
2	7110	2118.244055204675	175
2	7114	2118.82496017728	176
2	7115	2119.631140410923	175
2	7119	2119.765105218036	176
2	7121	2120.997791417518	177
2	7122	2121.081351869576	176
2	7126	2121.215070786145	177
2	7128	2122.171764998329	178
2	7130	2123.061718417167	179
2	7131	2123.078755965293	178
2	7134	2124.48392319011	177
2	7138	2125.415102662974	178
2	7139	2125.774216328212	177
2	7143	2125.998355780631	178
2	7144	2126.998684362532	177
2	7148	2127.606482315271	178
2	7150	2127.612276447829	179
2	7152	2128.347663323645	180
2	7154	2128.623145867385	181
2	7155	2128.712232901925	180
2	7158	2130.442834021734	179
2	7162	2130.613811776324	180
2	7163	2131.76392846203	179
2	7167	2133.212616507527	180
2	7168	2133.366937271343	179
2	7172	2134.298789259534	180
2	7174	2135.037068847103	181
2	7175	2135.178634569073	180
2	7179	2136.696378659473	181
2	7180	2137.016008418264	180
2	7184	2137.850629410362	181
2	7185	2138.608791824082	180
2	7189	2138.658726940977	181
2	7192	2140.078167411896	180
2	7196	2140.950277814147	181
[...]
5	76097	22858.121769934175	2300.4040296466
5	76108	22861.967741610137	11907.588064199
5	76167	22879.384145998052	4409.2449789281
5	76177	22881.985380529454	4409.5759115452
5	76232	22897.372479174315	10720.895234614
5	76368	22935.140359078189	4419.94220773
5	76427	22951.4638330404	17194.674147751
5	76571	22995.146959338924	9423.4012049092
5	76574	22997.114598427555	2319.3852436804
5	76697	23032.821372077084	10789.919189649
5	76735	23043.780486508488	11993.521949339
5	76838	23073.343201739555	21324.511547318
5	76919	23097.734581697574	4456.9238157248
5	76937	23103.671674174472	10818.064051861
5	76964	23111.347464372993	2324.2786904108
5	76977	23116.021492264823	7959.8306762969
5	76994	23121.134772815214	7961.8035335717
5	77004	23124.506064578549	15082.865077754
5	77038	23135.557878607916	19832.393719583
5	77152	23167.664585856752	9499.8352315073
5	77155	23169.604989084819	6322.4875109761
5	77189	23181.182524127731	2327.7129328385
5	77210	23185.90441662989	15117.663579769
5	77238	23194.236183208259	7994.4625848663
5	77243	23195.643404893981	4469.2945832836
5	77250	23197.153114855321	6326.0209727237
5	77326	23222.988842788558	6331.1392550255
5	77374	23235.196366225403	6326.7114706565
5	77382	23238.300197026354	4479.6326686277
5	77447	23259.224563338269	2337.622467384
5	77450	23260.488521564227	8019.2576657248
5	77507	23278.470441727561	4478.8825076568
5	77562	23295.344252498853	2339.133140238
5	77665	23323.848645542782	9555.8126353626
5	77707	23337.406150178272	12138.336829314
5	77720	23342.104581879299	9562.9810117122
5	77740	23348.321963564154	6361.2633658368
5	77755	23352.862387743625	10936.62083458
5	77765	23356.092539598639	12146.973861567
5	77836	23375.798592279884	4496.8042055876
5	77903	23396.91116861909	4502.9322730163
5	77959	23413.100247495653	20069.83066746
5	78005	23426.085332164572	21644.304950117
5	78041	23438.35673457797	6381.9015863324
5	78060	23443.133384607763	2356.9496929051
5	78080	23449.474976496429	2357.2524771923
5	78164	23472.452146059491	8101.9851196343
5	78181	23477.949967673451	2363.1346348917
5	78215	23487.464900297143	8107.3996947512
5	78249	23496.884275599413	13344.009484569
5	78289	23509.078607274807	21202.863337978
5	78507	23575.079268637884	12268.020811755
5	78660	23618.933588564608	6449.4832719357
5	78685	23627.489270573321	21302.463141488
5	78695	23631.077422349366	8157.9661748441
5	78740	23644.182925070661	9688.7999607415
5	78762	23651.383156381759	15437.615893971
5	78784	23657.995813436459	2388.4288257101
5	78807	23666.245356901947	4561.689414611
5	78864	23683.780086620736	11087.493800497
5	78926	23703.886433736447	2398.1476223363
5	78931	23705.16097454841	2396.0984021937
5	78953	23711.139164058331	14511.633563786
5	78969	23714.55327779318	12335.975895172
5	79011	23727.208849386711	12344.210267269
5	79044	23737.788915991997	16332.861244689
5	79173	23777.044465990018	2408.2568107015
5	79182	23782.128440520567	2403.0252440426
5	79192	23785.319078007927	8209.9268947373
5	79241	23799.958926682575	2409.3743979076
5	79246	23801.213566153897	6497.418107347
5	79251	23802.625249866424	2408.2042930525
5	79256	23804.098584191715	4595.4477953785
5	79274	23810.702748942216	18403.163200068
5	79279	23812.175612902482	15522.976333826
5	79302	23819.87833519171	12368.902611084
5	79456	23866.549781329398	8237.2801390739
5	79527	23888.664746858764	6534.4477807303
5	79554	23896.023793652307	2423.2821534704
5	79609	23910.100029585722	17872.523883358
5	79644	23921.461438804891	14631.728670716
5	79658	23924.455777446207	2428.9171569642
5	79678	23930.760487616089	2427.964617744
5	79686	23933.761349827078	9806.3594303186
5	79704	23940.180675562498	9809.1487754131
5	79861	23985.757283077231	2429.2289656166
5	79927	24003.348768106502	2427.4077649365
5	79955	24012.959544404064	12479.683356036
5	80031	24034.290125411404	4640.7402402876
5	80103	24056.857298347196	4649.2958072374
5	80108	24058.67935031618	4649.7851256158
5	80133	24066.834373289562	13649.852354661
5	80143	24070.656857705517	4655.7285857946
5	80251	24102.739094730124	4663.9937302028
5	80372	24139.178780636594	9882.4572808772
5	80413	24150.563140928217	12547.697486315
5	80464	24165.781742445037	6612.2188851209
5	80683	24230.051395785653	14802.911684864
5	80715	24243.920867095172	8373.8455340881
5	80728	24248.158045605786	4674.3092863902
5	80804	24268.044459996773	9936.821917029
5	80993	24325.646949792122	2456.5419329696
5	81033	24338.625257402313	4678.945131387
5	81048	24343.535811275457	9958.9748556122
5	81053	24345.111145143424	4678.0521621384
5	81065	24348.583955701281	6644.7659485746
5	81073	24351.283522879545	11384.48349634
5	81102	24359.911820741397	12663.244695806
5	81107	24361.744377955821	6650.5031919383
5	81189	24387.928301367378	9977.8483585749
5	81192	24389.197029893687	2464.0587863339
5	81214	24395.07243342719	9982.9179512724
5	81308	24421.543530716588	4695.6871547866
5	81396	24445.98321131154	10005.903246045
5	81412	24451.917213475919	4702.732137978
5	81531	24485.501667966536	4710.1463191297
5	81619	24511.10080894924	2472.7892200712
5	81637	24514.278143558309	8475.2617589684
5	81781	24553.454880166828	11490.829951542
5	81806	24561.900822605967	6709.2024214993
5	81894	24590.266846567607	15032.21192772
5	82027	24626.759765703073	11526.608878104
5	82060	24636.445777461333	2483.2783510491
5	82067	24637.881944961874	10097.503769759
5	82182	24671.079569267323	2485.4290098907
5	82200	24677.08336409538	2486.7597673722
5	82228	24687.005399101255	11553.577732312
5	82241	24692.117687889775	6760.6687395149
5	82259	24698.85062790851	6765.2333511789
5	82300	24712.938096139607	15105.750390573
5	82322	24719.418356781293	6776.4586498617
5	82390	24738.24881255238	10143.843490689
5	82450	24756.872147614162	11596.262445946
5	82456	24760.066236679281	4767.8850167396
5	82471	24765.316800475518	6784.713591525
5	82580	24796.947550644564	15164.101544867
5	82728	24841.907222321093	4789.5086594043
5	82847	24876.381372428895	6804.2804703598
5	82902	24891.113028559857	6814.8643570976
5	83137	24964.358295536438	6853.5227879963
5	83178	24980.200157718199	14226.035906121
5	83221	24991.705936797918	6871.6087324978
5	83229	24994.536707908125	6869.7285128304
5	83260	25006.626954585897	2529.3355916912
5	83297	25016.599548555374	15340.074379358
5	83369	25037.053288601733	14255.354968599
5	83419	25050.135753790683	15358.593528852
5	83422	25051.845969830661	2531.8132809014
5	83507	25077.838234378048	2532.6418618068
5	83510	25079.219367074058	13086.495622288
5	83598	25104.584590148949	2535.4158081196
5	83675	25128.38504655978	4836.1895999526
5	83683	25130.99222322034	8702.0532867198
5	83696	25135.549831431566	6895.8555728222
5	83743	25146.766067223644	13121.401819966
5	83751	25150.13685110437	2536.6833631804
5	83763	25153.340137857778	4840.1230594713
5	83867	25185.327521827838	2536.7215394444
5	83957	25211.432029486095	4838.1063203502
5	84221	25292.634821961654	13207.838971605
5	84282	25311.030246339015	10402.991555107
5	84292	25314.534938581496	20194.268405214
5	84336	25331.599327152803	23377.752269533
5	84374	25341.520376537575	11877.749710537
5	84381	25343.167815543173	13229.611297202
5	84443	25362.028700968272	4857.510579373
5	84460	25366.322142972073	20775.890723611
5	84495	25377.800756700544	6958.2223737095
5	84557	25396.51295615772	8789.1812125435
5	84605	25412.176565829311	8795.0547608411
5	84629	25419.505641790498	13276.692356182
5	84653	25425.579865931365	11921.283109427
5	84698	25439.424841021205	14471.095418096
5	84722	25445.637924591096	11928.76176946
5	84749	25453.727481451088	2560.0982545362
5	84757	25457.420898051762	2562.089673046
5	84803	25473.210982047596	14494.679026519
5	84869	25493.172263117336	4882.2662594775
5	84944	25516.737055214511	11967.037508717
5	85049	25548.136951665039	4895.8881846092
5	85057	25550.825170647929	2579.3420257665
5	85075	25553.826555807533	2581.1907547162
5	85109	25562.694426587241	10500.237262451
5	85134	25571.059977211075	4902.8109810415
5	85142	25574.122988465445	7020.4062189285
5	85193	25589.002481491321	8867.3363538138
5	85282	25614.587492183797	2588.8010004674
5	85299	25618.948247452655	7031.3222165089
5	85356	25636.360484873518	12039.810076842
5	85371	25641.38648475857	7038.6662313694
5	85609	25711.513756970885	18489.930851631
5	85646	25721.697784093405	15737.308417042
5	85727	25746.187053533655	8909.8418239472
5	85758	25753.647114405233	4927.8954279975
5	85774	25759.663387881975	2598.8793222636
5	85816	25773.087363718274	4932.1983564885
5	85829	25777.910818951959	2596.5282365158
5	85941	25808.56879652013	7069.9765528063
5	85986	25822.244134088801	14684.244417192
5	86059	25843.3297892945	15823.002546964
5	86096	25854.844835877802	18592.928094109
5	86104	25857.961643200751	17770.145078392
5	86165	25875.516290157486	14708.836240953
5	86319	25919.101233545143	4951.1646495448
5	86398	25943.43429924977	4950.3696187185
5	86514	25974.889919720042	2601.2767643639
5	86524	25978.457138073083	10657.415337123
5	86544	25984.615924597356	8971.8396206912
5	86567	25991.757368505385	17845.075944957
5	86577	25995.061503305111	13553.274485583
5	86616	26005.989110190991	7110.6688047862
5	86666	26021.200829882187	10678.204007571
5	86671	26023.140831967269	8981.3645838547
5	86851	26075.585547270825	23104.659105248
5	86870	26083.601829211985	2618.0284063829
5	86901	26091.713242785645	16990.167933734
5	86922	26100.78840076403	2619.4923476289
5	86972	26113.350590811681	15971.678912245
5	86990	26119.519642458681	4992.8743358245
5	86993	26120.723997845698	12248.407941421
5	87028	26132.173678361077	9029.1630404928
5	87040	26138.680533523497	7149.1935655011
5	87069	26147.645073250693	7155.2546311795
5	87092	26155.122147487115	9043.7896851296
5	87161	26177.028227234644	5003.5335430826
5	87301	26217.88364196868	5010.6725345892
5	87309	26220.828251257737	9074.3902057511
5	87317	26224.278873637517	7162.9426306381
5	87355	26233.913516118203	9076.5423046795
5	87434	26258.090195295227	7182.4607267585
5	87559	26294.895153023873	12332.817171679
5	87639	26315.510774393017	7205.1559624162
5	88005	26416.416356764558	18149.753668521
5	88011	26419.628078355465	10855.589451572
5	88118	26450.589745119039	18165.869111991
5	88147	26458.872188635182	13780.286671736
5	88398	26530.754702758616	18226.10702785
5	88420	26536.015158113293	7263.1737640069
5	88472	26551.389890641548	19850.465319937
5	88504	26560.690231424957	22214.149569208
5	88511	26562.379316049456	10911.354897732
5	88514	26563.813690035991	2650.2077955077
5	88630	26598.327925146758	2646.7398892823
5	88740	26630.200115893982	10948.31453893
5	88835	26654.705257052942	9233.8452256867
5	88878	26666.150950802506	2660.4492983996
5	88907	26674.781177692132	16276.28132922
5	88966	26692.202057664487	18333.559263773
5	88978	26695.550458982046	13889.556272537
5	89027	26709.53822740132	17379.119478237
5	89113	26738.309421261046	7320.5902824437
5	89167	26754.38028585745	21295.125158081
5	89181	26757.856333206799	5106.2858087674
5	89243	26777.043402790669	12540.528025768
5	89269	26785.594874686208	17426.430112107
5	89279	26788.804007603806	9259.1759007133
5	89364	26815.410040367971	16362.876821587
5	89427	26833.744383473338	2675.9335469079
5	89487	26854.615032267027	21367.134440506
5	89553	26873.345205493099	5125.1767156957
5	89556	26874.89079812394	11034.296838816
5	89559	26876.476958563193	12585.395663867
5	89574	26881.978745112209	9300.8199219335
5	89577	26883.508036791919	11035.581906183
5	89626	26897.208847880563	9305.0196697558
5	89679	26914.218432608446	12604.78129779
5	89718	26926.720674107609	16443.800771662
5	89748	26936.192905713631	2682.1402303127
5	89751	26937.652806872888	22003.133730078
5	89759	26941.367856002053	21427.546632275
5	89809	26956.950182779705	23025.342733006
5	89887	26980.72169662529	7358.538302274
5	89911	26987.505017904764	11069.121873081
5	89948	26998.949132881698	12645.220216107
5	89955	27000.856734046166	9328.9306419698
5	89958	27002.118189034437	2693.0477832823
5	89961	27004.071394825925	20169.076564656
5	89986	27015.63348409423	7370.6664275686
5	89989	27017.019237194409	9328.3968084779
5	90020	27025.679640022864	9332.6695382603
5	90060	27036.746683341649	9335.4335479786
5	90080	27044.937964810256	14075.814212558
5	90156	27063.942395113978	9351.9473101309
5	90167	27068.613275274273	5155.1876614476
5	90236	27089.622089725929	7379.7421130594
5	90273	27101.56995238104	2693.3416872523
5	90425	27150.524789479013	2707.6344749723
5	90494	27171.252474004972	7417.994682617
5	90502	27174.762106264393	2712.6314414742
5	90584	27197.623126850289	12752.291917199
5	90602	27203.949183510814	9411.491880231
5	90651	27218.483853237341	2724.3721120482
5	90657	27221.362239453021	2724.6912672788
5	90700	27232.754000652034	14208.349005134
5	90727	27240.04833840077	2728.0630190723
5	90764	27252.023407864395	18725.127631573
5	90931	27302.075761678826	7468.3959252291
5	90980	27315.251782209809	7470.1580350058
5	90985	27317.075807857151	24540.257731015
5	91062	27340.893530789027	12822.817687656
5	91075	27345.390983066344	2741.2732752498
5	91129	27361.41284017545	18798.91983254
5	91137	27364.821001252726	5225.2069682569
5	91176	27376.228759063042	5229.9470340538
5	91189	27380.543902942545	5232.9866590035
5	91194	27381.820985236771	16730.772807448
5	91228	27391.435629789912	2752.1349857987
5	91373	27441.477350538607	15618.481756923
5	91453	27467.125308831231	2748.3519193896
5	91570	27499.087431166329	19769.435200025
5	91611	27508.989878511438	7529.7512617343
5	91657	27524.351156723323	5254.1414349463
5	91720	27541.455823399324	2757.4832708731
5	91758	27550.9128531471	7541.9109647972
5	91824	27569.648123500322	9551.0676634262
5	91849	27577.771542334196	5261.9012205588
5	91940	27605.38491619659	25676.517466457
5	91947	27607.250921894436	7557.4410316842
5	92060	27642.557429970997	9574.3664315042
5	92195	27684.65886133463	2785.0840068907
5	92198	27686.557616577678	2786.7289131382
5	92215	27692.054211178989	9609.7676797488
5	92276	27710.419799944579	9618.9444968573
5	92348	27733.606363135769	5311.4886317292
5	92354	27736.741293199554	13036.378520991
5	92430	27757.454232597358	15832.118862006
5	92465	27769.313228275449	2788.1286908005
5	92564	27801.579973053195	2787.2361983884
5	92623	27817.326026988409	21534.931174037
5	92765	27857.776327948464	11479.546102213
5	92820	27873.059772427757	25029.677814382
5	92857	27884.964126599958	26383.764087328
5	92897	27898.691684904886	22826.784183753
5	92910	27903.338919914333	25397.973626783
5	92933	27911.942057072563	2803.7956679319
5	92984	27926.827337486674	2812.5449964
5	93043	27945.40158346836	7652.6794388605
5	93058	27950.027122046616	2808.050803367
5	93061	27951.939987226952	7650.2212654646
5	93083	27961.532137505342	9712.6010057989
5	93105	27967.736752222297	2815.4660795019
5	93150	27982.278489843201	7655.7481623768
5	93190	27992.39454500601	7660.6306611784
5	93205	27996.293046361584	11536.338427232
5	93212	27997.98767763805	2813.4792469296
5	93248	28010.756268531461	2814.5901735397
5	93270	28016.51485184804	9727.3150469189
5	93286	28019.658385221478	5363.0287821595
5	93344	28039.1340115957	14645.637009776
5	93441	28067.685078503196	5365.1153759542
5	93444	28069.52829436623	2823.9413533042
5	93467	28078.30285509285	17196.974661002
5	93519	28094.34477322307	9748.1681576239
5	93609	28122.991851045197	5377.0835415318
5	93628	28130.593041433586	2832.274078542
5	93648	28136.739542829064	5380.9095654293
5	93667	28141.44053613544	5382.230460075
5	93689	28146.870580195827	2827.7440254726
5	93740	28161.299361491209	5377.6110655789
5	93792	28177.144050255609	2831.4112511772
5	93820	28186.331595939589	9784.7603980131
5	93852	28195.778445704845	17258.051724531
5	93952	28224.762203146521	17282.219256738
5	93958	28227.622441648695	2837.6432771672
5	94001	28238.726597474705	9808.3344575828
5	94016	28243.73272576053	5399.4247454649
5	94043	28252.020673536699	25367.895228487
5	94048	28254.013160100769	19421.345757508
5	94117	28273.098065268252	13284.536363036
5	94416	28361.012607652136	9851.5803304219
5	94431	28366.055066472666	2831.5559451941
5	94577	28408.473250668312	2850.2017203713
5	94654	28429.695779714922	11716.992987015
5	94726	28452.067455950939	5444.2788127395
5	94761	28464.257252581978	2861.9151595419
5	94784	28472.666610775516	14888.427304481
5	94848	28488.912855797449	7772.3517539121
5	94915	28512.285882120396	9903.1746470667
5	94967	28529.039585563915	14911.465849278
5	94972	28530.300804563427	2862.9222416271
5	95102	28569.54246832654	22759.11625484
5	95110	28572.735119216704	5474.7250808537
5	95250	28613.050085455554	13441.580200243
5	95279	28621.536610856841	2878.816198421
5	95320	28636.405224865492	9942.4583636347
5	95672	28740.290358615854	9968.965836131
5	95724	28754.661634942517	17591.396747434
5	95824	28786.501963299139	7830.9979344034
5	95881	28803.499392299353	13532.081028253
5	95931	28819.557345377652	2899.0064936076
5	95973	28828.57723530065	15058.277744259
5	96022	28843.054911739562	11857.846823941
5	96127	28876.546201826628	10009.61082253
5	96198	28893.640533065233	17672.770858816
5	96209	28897.976808373626	10012.978344142
5	96292	28925.050308568028	2912.4288493069
5	96375	28948.148238492009	23638.11812659
5	96520	28988.911887253631	5532.7442654211
5	96523	28990.532411928471	5534.1229465713
5	96554	29002.586506646681	11930.24727792
5	96571	29007.030786604802	15160.301710442
5	96574	29008.593241022709	5538.379006703
5	96627	29022.869616183261	23698.950297556
5	96651	29029.42891120817	17765.122321787
5	96659	29032.322668247292	2920.6889358877
5	96687	29042.580623588146	15173.479072584
5	96702	29048.089359726378	2923.3543509259
5	96707	29049.864382276119	25250.967785983
5	96734	29058.33856752272	15170.729121118
5	96816	29084.009652289741	7922.1243480059
5	96871	29100.720801468557	2919.1591129362
5	96879	29103.469558394505	18930.812919114
5	96925	29119.782206787345	10074.783646776
5	97004	29143.681608186093	7937.4655799393
5	97117	29173.791230441433	15238.9504669
5	97120	29175.634912921291	16617.52843926
5	97137	29180.98714717402	16621.947612259
5	97150	29185.547827133153	2928.7848198836
5	97163	29189.784417041008	2930.7193546179
5	97176	29194.804613055092	12025.039838583
5	97244	29216.391665310028	15270.497665781
5	97427	29269.26901876273	7990.7123523959
5	97452	29277.463271685861	13777.325568917
5	97465	29282.226067518055	17926.5531323
5	97492	29290.168741796522	2953.202828982
5	97630	29331.173026533781	5610.3477012819
5	97666	29340.102544898525	17958.42847448
5	97733	29359.47634198571	17968.15796189
5	97775	29372.376493826866	10197.841068495
5	97826	29385.705504291302	17988.115873914
5	97961	29426.870490278474	15375.074062795
5	97969	29430.834823600746	5628.9231925611
5	97977	29433.910063464924	10225.011474599
5	97992	29439.169001072257	2978.0121444931
5	98031	29450.999485682121	2982.6538548065
5	98372	29548.820331810588	8075.7238419792
5	98497	29587.365107490854	12206.735183943
5	98517	29590.684279867435	10279.673806292
5	98586	29608.118244062164	18108.889307216
5	98589	29609.638625578568	5660.4269838096
5	98624	29621.703128880248	5666.7126135377
5	98644	29628.206055506119	8096.0510957288
5	98679	29638.869167863378	5670.2807689035
5	98733	29655.759980686369	3011.4233051656
5	98736	29657.108374680566	13975.812677256
5	98750	29660.210529478813	8111.6583829937
5	98834	29685.501011897984	24251.721744878
5	98837	29687.094869081291	24807.498861683
5	98905	29707.898623514164	13984.526780018
5	98966	29725.105378927837	15532.243741958
5	98969	29726.711188693146	16923.441526197
5	98976	29728.144810979428	12265.27936255
5	98984	29731.206221185798	5694.1763279132
5	99009	29738.835354510309	5698.2429721762
5	99096	29762.39052625502	10352.295067291
5	99214	29795.785120200165	10360.948059833
5	99306	29822.679710666635	3030.577472604
5	99367	29842.501578008554	5700.0225145845
5	99393	29849.583765159717	16987.819891385
5	99487	29875.924707680553	12327.987670723
5	99531	29888.139614146001	14060.339432205
5	99543	29891.237338106878	15608.753151091
5	99610	29908.487222835408	8161.0126631548
5	99635	29916.983162565516	17023.609228196
5	99813	29966.665710721526	14092.824007807
5	99860	29980.649657783087	5715.7078411271
5	99865	29981.937006488617	8175.6591793555

