version 2
run Third_exit_5-17-20191114-11:42:58-9026
attr configname Third_exit_5
attr datetime 20191114-11:42:58
attr experiment Third_exit_5
attr inifile omnetpp.ini
attr iterationvars ""
attr iterationvarsf ""
attr measurement ""
attr network ResponseTimeNetwork
attr processid 9026
attr repetition 17
attr replication #17
attr resultdir results
attr runnumber 17
attr seedset 17
param **.Source.interArrivalTime exponential(6s)
param **.jobPriority bernoulli(0.8)
param **.PS.serviceTimeU1 "uniform(1.2s, 2.0s)"
param **.PS.serviceTimeU2 "uniform(2.4s, 2.8s)"
param **.SS1.serviceTime exponential(1.4s)
param **.SS2.serviceTime exponential(2s)
param **.PS.exitProbability bernoulli(0.5)

vector 0 ResponseTimeNetwork.QueueU2 queueLength:vector ETV
attr interpolationmode sample-hold
attr title "queue length, vector"
vector 1 ResponseTimeNetwork.QueueU1 queueLength:vector ETV
attr interpolationmode sample-hold
attr title "queue length, vector"
vector 2 ResponseTimeNetwork.sink lifeTimeU2:vector ETV
attr interpolationmode none
attr title "lifetime of arrived jobs U2, vector"
attr unit s
vector 3 ResponseTimeNetwork.sink totalServiceTimeU2:vector ETV
attr interpolationmode none
attr title "the total time spent  by arrived jobs U2, vector"
attr unit s
vector 4 ResponseTimeNetwork.sink lifeTime:vector ETV
attr interpolationmode none
attr title "lifetime of arrived jobs, vector"
attr unit s
vector 5 ResponseTimeNetwork.sink totalServiceTime:vector ETV
attr interpolationmode none
attr title "the total time spent  by arrived jobs, vector"
attr unit s
vector 6 ResponseTimeNetwork.sink lifeTimeU1:vector ETV
attr interpolationmode none
attr title "lifetime of arrived jobs U1, vector"
attr unit s
vector 7 ResponseTimeNetwork.sink totalServiceTimeU1:vector ETV
attr interpolationmode none
attr title "the total time spent  by arrived jobs U1, vector"
attr unit s
vector 8 ResponseTimeNetwork.SS1 queueLength:vector ETV
attr interpolationmode sample-hold
attr title "queue length, vector"
vector 9 ResponseTimeNetwork.SS2 queueLength:vector ETV
attr interpolationmode sample-hold
attr title "queue length, vector"
0	16500	10005.575829558256	1
0	16501	10005.889985120468	0
0	16510	10007.728810859158	1
0	16511	10009.400190078324	0
0	16700	10112.430884868837	1
0	16701	10112.75197451225	0
0	16800	10225.731212135415	1
0	16801	10226.81909301593	0
0	16830	10260.223342200378	1
0	16831	10261.29971255934	0
0	16895	10326.60432638416	1
0	16896	10328.053732023876	0
0	16950	10375.853238277007	1
0	16951	10377.684913089455	0
0	16960	10379.094851832386	1
0	16961	10380.62442182293	0
0	17080	10433.358280398413	1
0	17086	10436.483450120989	0
0	17290	10551.905510525456	1
0	17291	10552.841122069567	0
0	17345	10602.231396710294	1
0	17351	10605.409431967343	0
0	17392	10619.25526842338	1
0	17401	10623.221524867815	0
0	17440	10641.870649908366	1
0	17451	10645.726294533215	0
0	17497	10673.93128426545	1
0	17504	10675.416867492528	2
0	17518	10681.537097945816	1
0	17521	10683.023267940252	0
0	17525	10683.429822879946	1
0	17526	10684.423365675664	0
0	17530	10685.354406089309	1
0	17531	10686.300139963074	0
0	17535	10687.676182629918	1
0	17536	10688.031343244953	0
0	17610	10731.251746999838	1
0	17611	10732.855309733921	0
0	17630	10739.012429877824	1
0	17631	10740.499135739792	0
0	17640	10742.363167279941	1
0	17651	10746.405545093741	0
0	17777	10812.661806359648	1
0	17786	10815.419298541902	0
0	17810	10838.650925939644	1
0	17811	10839.652969081706	0
0	17865	10866.288281811973	1
0	17866	10866.440285325601	0
0	17890	10896.322082829029	1
0	17891	10896.592141569787	0
0	17985	10968.178027448513	1
0	17986	10969.156681507749	0
0	18201	11079.0615318548	1
0	18216	11086.598933880006	0
0	18515	11292.02351467138	1
0	18516	11292.855742754443	0
0	18597	11338.324248000704	1
0	18629	11350.204425356325	2
0	18643	11354.983621625964	1
0	18646	11356.439456824389	0
0	18765	11441.722163673302	1
0	18766	11442.257558485339	0
0	19005	11667.236027688666	1
0	19006	11668.3841877847	0
0	19025	11673.856322345997	1
0	19031	11676.671780649669	0
0	19045	11680.537760247177	1
0	19066	11687.771608647516	0
0	19115	11735.771518360958	1
0	19116	11737.545813484893	0
0	19165	11761.854301203105	1
0	19174	11763.788587889577	2
0	19178	11766.446618544988	1
0	19181	11767.971181717075	0
0	19185	11768.079922859661	1
0	19186	11769.669086970321	0
0	19347	11883.446262553749	1
0	19361	11887.336981203607	0
0	19410	11931.174263081618	1
0	19416	11933.821760684083	0
0	19420	11933.85459075055	1
0	19426	11936.401577542181	0
0	19540	12007.394271554303	1
0	19541	12007.732342810463	0
0	19602	12029.348713753695	1
0	19616	12035.441295552808	0
0	19682	12115.059062609715	1
0	19696	12119.933641357711	0
0	19787	12174.878544489098	1
0	19791	12177.300870204889	0
0	19885	12230.586680418313	1
0	19886	12231.21742588652	0
0	19915	12252.305728945873	1
0	19916	12252.93504756768	0
0	19927	12254.390164586499	1
0	19991	12276.011507502799	0
0	20200	12425.966886618144	1
0	20206	12428.74926938168	0
0	20220	12431.817401294084	1
0	20221	12433.738647296804	0
0	20235	12436.671645295276	1
0	20236	12437.933982979611	0
0	20405	12602.634053521985	1
0	20406	12602.84231719051	0
0	20525	12706.289098265903	1
0	20541	12712.560461076474	0
0	20610	12788.365913798379	1
0	20611	12789.738232225032	0
0	20622	12792.415866137705	1
0	20626	12794.0359831151	0
0	20657	12810.341386938092	1
0	20659	12811.03329031463	2
0	20668	12814.876944370327	1
0	20671	12816.254261208644	0
0	20680	12818.154721515473	1
0	20681	12819.493724032437	0
0	20692	12823.031297579367	1
0	20696	12824.713587002774	0
0	20760	12886.750747666478	1
0	20761	12887.748746909257	0
0	20895	12950.007575473499	1
0	20896	12950.595614192427	0
0	20910	12953.977055932335	1
0	20916	12956.482909153195	0
0	20930	12963.357053548951	1
0	20931	12964.805194235177	0
0	20940	12966.875414652117	1
0	20946	12969.667312370756	0
0	20960	12974.885008439015	1
0	20961	12976.337187982094	0
0	21020	13038.124339223294	1
0	21021	13038.630780296273	0
0	21035	13043.689466668905	1
0	21036	13044.98341886823	0
0	21171	13148.867615850486	1
0	21192	13155.526742732435	2
0	21193	13157.3089509718	1
0	21241	13173.488134947594	0
0	21365	13226.575258831935	1
0	21366	13227.385269109758	0
0	21382	13231.125893599948	1
0	21386	13233.502025420258	0
0	21425	13261.172432408161	1
0	21426	13262.613301182046	0
0	21435	13264.448755563482	1
0	21436	13265.615728825769	0
0	21450	13270.895315625362	1
0	21451	13271.860549591761	0
0	21759	13449.838035882085	1
0	21766	13451.819708902905	2
0	21829	13471.848712793416	3
0	21830	13472.294734554419	2
0	21833	13473.611703036593	1
0	21847	13477.426265559814	2
0	21855	13478.064146380773	3
0	21862	13479.5676105007	4
0	21867	13480.508881889629	5
0	21909	13496.116101055644	4
0	21917	13499.283150524884	3
0	21926	13501.104130786906	4
0	21927	13502.237737137131	3
0	21941	13505.432567951534	4
0	21942	13505.892639824987	3
0	21951	13508.333309347392	4
0	21955	13509.097090346516	5
0	21959	13511.120716670395	4
0	21967	13514.189993093961	3
0	21971	13515.135660910702	4
0	21978	13516.137325427019	5
0	21979	13517.299280015246	4
0	21982	13518.835602593102	3
0	21991	13521.31171903849	4
0	21992	13521.89149257993	3
0	22000	13525.327304929361	2
0	22009	13527.354944052508	3
0	22010	13528.672950688988	2
0	22013	13530.336947937734	1
0	22016	13531.700074035167	0
0	22020	13532.292120391962	1
0	22021	13533.542547465912	0
0	22042	13548.308024589053	1
0	22046	13550.744736839533	0
0	22052	13551.773357750932	1
0	22056	13554.294877042696	0
0	22060	13555.435144773622	1
0	22066	13557.458801668398	0
0	22170	13617.737845940044	1
0	22171	13617.768061725265	0
0	22210	13635.95389786099	1
0	22211	13636.933512138262	0
0	22227	13640.721676122337	1
0	22236	13644.58282969853	0
0	22302	13669.164803984285	1
0	22316	13674.72664569646	0
0	22400	13749.309754834943	1
0	22401	13750.388952370134	0
0	22410	13753.29143143756	1
0	22411	13754.111091522646	0
0	22415	13754.896668827556	1
0	22416	13755.336978598085	0
0	22435	13772.681382549953	1
0	22436	13773.875056441116	0
0	22450	13786.695993965687	1
0	22451	13787.605069234475	0
0	22455	13789.167145051645	1
0	22456	13789.265286572717	0
0	22532	13833.741173903719	1
0	22536	13836.118352843297	0
0	22697	13944.366763458436	1
0	22711	13949.430831303116	0
0	22770	13980.888360568084	1
0	22771	13981.081212171067	0
0	22999	14129.661562117766	1
0	23031	14142.435876667926	0
0	23052	14154.067934746834	1
0	23062	14156.407924917432	2
0	23063	14157.5097123809	1
0	23074	14160.13869752273	2
0	23078	14162.326800327732	1
0	23081	14164.265909510276	0
0	23175	14264.670676821875	1
0	23176	14264.961663774781	0
0	23185	14267.182310368605	1
0	23216	14278.702979004391	0
0	23495	14415.452737365807	1
0	23502	14417.572749487669	2
0	23503	14418.477893783178	1
0	23506	14419.812813876968	0
0	23617	14522.979414236146	1
0	23621	14525.690502199579	0
0	23675	14549.479792228534	1
0	23676	14549.534294890902	0
0	23685	14552.766389257421	1
0	23686	14552.884692858821	0
0	23699	14556.361940316462	1
0	23753	14570.599221581556	2
0	23788	14584.21786856196	1
0	23797	14586.519409559482	2
0	23813	14592.839895754039	1
0	23816	14594.298489452257	0
0	23830	14598.20884080245	1
0	23832	14598.40599656096	2
0	23848	14604.898814117081	1
0	23857	14606.460855820042	2
0	23858	14607.631153248168	1
0	23861	14609.264326960325	0
0	23895	14635.579173586689	1
0	23896	14636.032877072026	0
0	23980	14717.124805549874	1
0	23981	14718.020562506389	0
0	24097	14768.127298337679	1
0	24104	14770.086931176499	2
0	24113	14773.636356460616	1
0	24134	14778.20261925366	2
0	24143	14783.553064915477	1
0	24156	14788.102413806445	0
0	24170	14790.901433227501	1
0	24171	14792.554559258684	0
0	24217	14824.890423940503	1
0	24266	14841.066784882528	0
0	24277	14842.914887670764	1
0	24301	14852.315948402304	0
0	24487	15016.377802216837	1
0	24491	15017.990154933694	0
0	24500	15020.639134167684	1
0	24501	15021.371963972735	0
0	24575	15059.246115808243	1
0	24576	15059.625243468089	0
0	24601	15065.855410527835	1
0	24636	15079.051988882077	0
0	24647	15081.184421596839	1
0	24652	15082.443371088779	2
0	24668	15089.119078188826	1
0	24676	15092.029492807266	0
0	24682	15092.649319254477	1
0	24687	15094.261575297238	2
0	24688	15094.67335041358	1
0	24692	15094.697535303347	2
0	24693	15096.328492533293	1
0	24699	15098.018154297662	2
0	24704	15098.727115457031	3
0	24748	15111.378975927561	4
0	24752	15113.413476080882	3
0	24760	15116.011864684771	2
0	24764	15117.179936400922	3
0	24773	15118.72874756071	4
0	24777	15120.698244363318	3
0	24785	15123.9577714889	2
0	24788	15125.845428643065	1
0	24796	15129.152452938693	0
0	24800	15129.621077940531	1
0	24801	15130.693173144447	0
0	24805	15130.979860893879	1
0	24806	15131.911465355629	0
0	24835	15152.901378259754	1
0	24836	15153.756797724623	0
0	24877	15171.717446827771	1
0	24921	15187.272002514654	0
0	25070	15283.076353278033	1
0	25071	15284.269973202578	0
0	25205	15402.738680130652	1
0	25206	15404.132168419764	0
0	25241	15415.726192969442	1
0	25291	15432.631197447353	0
0	25302	15435.837433193963	1
0	25354	15450.080070919037	2
0	25363	15454.26203997417	1
0	25366	15455.980771893846	0
0	25405	15484.204419746428	1
0	25406	15484.6517592086	0
0	25442	15497.554177887182	1
0	25458	15501.700345146672	2
0	25473	15508.346450392012	1
0	25491	15514.762089650747	0
0	25495	15515.3063101256	1
0	25496	15516.605288464059	0
0	25525	15535.218753998806	1
0	25526	15536.246680651559	0
0	25750	15643.853427788951	1
0	25752	15644.719091820382	2
0	25753	15645.333498508992	1
0	25762	15648.60407377498	2
0	25763	15648.720052483255	1
0	25766	15650.220750061559	0
0	25780	15653.862737420375	1
0	25781	15654.815859407494	0
0	25820	15681.720812483844	1
0	25824	15682.95706499938	2
0	25843	15690.043005219195	1
0	25846	15691.362418488879	0
0	25965	15764.300660387454	1
0	25966	15765.919964311805	0
0	25995	15790.22429808445	1
0	25996	15791.459001065928	0
0	26005	15793.18684342713	1
0	26007	15793.9603336584	2
0	26008	15794.627297717284	1
0	26021	15797.248274271088	2
0	26048	15807.114367100546	1
0	26056	15809.993157166751	0
0	26105	15853.883910296631	1
0	26106	15854.628969893364	0
0	26360	16001.902491953391	1
0	26361	16002.30025188614	0
0	26424	16040.010053863921	1
0	26436	16045.924312805486	0
0	26445	16048.328827210217	1
0	26446	16049.299776823352	0
0	26470	16056.051135351275	1
0	26471	16057.042358216699	0
0	26484	16059.550922703292	1
0	26491	16063.495926455837	0
0	26500	16065.372427242928	1
0	26506	16068.635088489188	0
0	26630	16146.9978344299	1
0	26631	16147.548882280315	0
0	26932	16354.352924886261	1
0	26936	16356.378850515914	0
0	26945	16357.862286614224	1
0	26946	16359.630811125022	0
0	27065	16404.8920291107	1
0	27066	16405.852045112776	0
0	27075	16408.742726167854	1
0	27076	16410.477313847206	0
0	27125	16448.913716668257	1
0	27126	16448.954619615188	0
0	27150	16456.941854432456	1
0	27166	16461.787862574716	0
0	27515	16697.270034593913	1
0	27516	16697.39912627107	0
0	27537	16703.551729787398	1
0	27541	16706.044762173393	0
0	27669	16789.421427165997	1
0	27676	16790.520171711678	2
0	27683	16794.399743311528	1
0	27686	16796.16495442656	0
0	27690	16796.466445647411	1
0	27699	16799.466041731788	2
0	27713	16804.094696148347	1
0	27716	16805.775540513407	0
0	27725	16808.592412021874	1
0	27726	16809.463359688353	0
0	27732	16809.688453309435	1
0	27737	16811.749956153404	2
0	27743	16813.546614563036	1
0	27752	16815.026811671665	2
0	27768	16821.119811128209	1
0	27781	16825.901313763799	0
0	27925	16906.489640847459	1
0	27927	16906.573673393308	2
0	27928	16908.060052934921	1
0	27931	16909.792297990507	0
0	28057	16998.864312320328	1
0	28061	17000.734505464378	0
0	28095	17023.306873587486	1
0	28096	17024.639191061281	0
0	28112	17029.388477047207	1
0	28127	17036.052756414801	2
0	28141	17039.283032087614	3
0	28155	17044.140428276426	2
0	28173	17051.045292830906	1
0	28182	17053.718969281412	2
0	28183	17054.452261200054	1
0	28189	17055.441781122335	2
0	28194	17057.065883088829	3
0	28195	17058.10622468765	2
0	28204	17060.522658730983	3
0	28210	17062.457765436052	2
0	28213	17064.260733941077	1
0	28217	17065.601409364134	2
0	28218	17065.752086925572	1
0	28221	17067.696978455289	0
0	28225	17067.836271809615	1
0	28227	17068.152148386701	2
0	28228	17069.51808551631	1
0	28231	17071.460497885263	0
0	28240	17075.712150799069	1
0	28241	17077.366608983965	0
0	28245	17077.924271670136	1
0	28252	17079.013515284004	2
0	28254	17080.600455831248	3
0	28255	17080.702107846678	2
0	28258	17082.276487920002	1
0	28261	17084.162225744815	0
0	28265	17085.202040968837	1
0	28266	17085.813439072238	0
0	28400	17200.128318942672	1
0	28402	17200.220236786343	2
0	28403	17201.731242722403	1
0	28406	17203.156316326875	0
0	28415	17207.895032166579	1
0	28416	17209.132560653073	0
0	28420	17209.880321396567	1
0	28421	17210.560507051666	0
0	28430	17218.039135457825	1
0	28431	17219.031809772985	0
0	28445	17223.668269834549	1
0	28446	17224.613029309245	0
0	28455	17226.691002136316	1
0	28456	17227.242225582222	0
0	28460	17228.231338054854	1
0	28467	17230.89663964912	2
0	28468	17231.06663271978	1
0	28471	17232.690789984422	0
0	28479	17234.464066490425	1
0	28486	17237.957499572332	0
0	28495	17242.198134274634	1
0	28496	17242.503803880342	0
0	28735	17394.954331948788	1
0	28736	17396.28688954142	0
0	28777	17412.856365123412	1
0	28781	17414.301941019256	0
0	28910	17499.636545934244	1
0	28916	17502.376451270589	0
0	28925	17505.063523075813	1
0	28926	17505.86850054298	0
0	28935	17508.94972142222	1
0	28936	17509.578784584407	0
0	29160	17677.762721179726	1
0	29161	17679.058868162194	0
0	29235	17725.000112960978	1
0	29236	17725.860026221299	0
0	29240	17726.855834078972	1
0	29241	17727.467617557147	0
0	29255	17732.845274959949	1
0	29256	17733.086326494471	0
0	29292	17749.542023205001	1
0	29296	17751.686913301191	0
0	29440	17903.292569438789	1
0	29441	17903.864223982255	0
0	29505	17925.920535932663	1
0	29511	17928.581289805927	0
0	29520	17931.840886253959	1
0	29521	17933.055812440888	0
0	29542	17939.352987692432	1
0	29546	17941.492746821941	0
0	29574	17949.540584770266	1
0	29586	17954.109866853395	0
0	29597	17957.117042536505	1
0	29601	17958.860486737417	0
0	29655	18008.920264271749	1
0	29656	18009.261256365487	0
0	29690	18022.603809602544	1
0	29691	18023.818255074272	0
0	29735	18051.717888699771	1
0	29736	18051.794451902422	0
0	29747	18053.972017246367	1
0	29751	18057.650263409863	0
0	29755	18059.185720355991	1
0	29756	18059.524679428327	0
0	29939	18167.867958079211	1
0	29946	18171.20500125245	0
0	30020	18220.035434856655	1
0	30021	18221.749011591829	0
0	30142	18341.760582346469	1
0	30151	18345.791602198195	0
0	30162	18348.440740108404	1
0	30167	18350.477161293866	2
0	30168	18351.162534354228	1
0	30171	18352.745763838451	0
0	30185	18357.257560080139	1
0	30186	18357.286664094377	0
0	30200	18363.950764663917	1
0	30201	18364.806071322794	0
0	30205	18365.5364620687	1
0	30206	18366.752602005201	0
0	30212	18367.405165927833	1
0	30216	18370.65975618885	0
0	30225	18373.183460696964	1
0	30226	18373.481398000951	0
0	30232	18375.200098363867	1
0	30237	18375.998159556959	2
0	30238	18377.247561779628	1
0	30241	18378.510782934735	0
0	30245	18378.856402150714	1
0	30246	18380.073551402064	0
0	30250	18380.271219387987	1
0	30252	18381.160653514674	2
0	30253	18382.054434497477	1
0	30257	18382.2944926581	2
0	30258	18383.89460177795	1
0	30261	18385.855005052508	0
0	30285	18408.247509935915	1
0	30286	18409.936695426814	0
0	30300	18414.023498401987	1
0	30301	18415.066155978908	0
0	30395	18504.25665295778	1
0	30411	18510.639161503019	0
0	30455	18527.565849759926	1
0	30456	18528.172161204441	0
0	30465	18531.339485888319	1
0	30466	18533.025627697412	0
0	30470	18533.09546279211	1
0	30476	18536.41976171058	0
0	30500	18542.264373250129	1
0	30501	18544.22395325635	0
0	30560	18577.547739398232	1
0	30561	18578.432880161486	0
0	30590	18613.572799065377	1
0	30592	18614.768323401161	2
0	30593	18615.000433169525	1
0	30602	18616.670780149681	2
0	30603	18617.976747410033	1
0	30606	18619.72278168447	0
0	30610	18619.743713423327	1
0	30611	18621.590860684064	0
0	30620	18627.31786233249	1
0	30621	18627.477718058358	0
0	30650	18669.859895510441	1
0	30651	18669.869395339744	0
0	30690	18740.51097613899	1
0	30691	18740.667498868318	0
0	30914	18883.253759908475	1
0	30966	18901.097505003434	0
0	30979	18903.280901191253	1
0	30991	18909.526292573508	0
0	31002	18911.037430561238	1
0	31006	18913.864104124937	0
0	31015	18917.560887490984	1
0	31016	18917.564665000733	0
0	31070	18963.652989882818	1
0	31071	18964.738213692379	0
0	31075	18965.519485775145	1
0	31076	18966.144049965364	0
0	31117	18987.747101847561	1
0	31131	18993.921131172937	0
0	31142	18996.897375317897	1
0	31146	18999.13819618353	0
0	31157	19003.80391198656	1
0	31166	19007.338260793279	0
0	31340	19146.630528964474	1
0	31346	19149.624240318522	0
0	31355	19151.978864952973	1
0	31366	19156.165682129398	0
0	31420	19182.113063447396	1
0	31426	19185.32362998168	0
0	31435	19188.673552375767	1
0	31436	19188.930439901753	0
0	31460	19202.394844164074	1
0	31516	19221.602243976319	0
0	31525	19225.807315622753	1
0	31526	19227.190648924396	0
0	31610	19271.302419182545	1
0	31611	19272.380602986455	0
0	31620	19274.627680398098	1
0	31621	19275.874934441872	0
0	31872	19470.4181914466	1
0	31876	19472.688596411991	0
0	31885	19474.962864483958	1
0	31886	19475.819509289424	0
0	31895	19478.426298311483	1
0	31896	19479.377203291293	0
0	31932	19514.231449157908	1
0	31946	19519.310130976186	0
0	31970	19528.635945628207	1
0	31971	19529.139290642433	0
0	32092	19618.349667568088	1
0	32106	19624.001187559842	0
0	32132	19651.74040051975	1
0	32136	19653.715225184822	0
0	32165	19677.174371447469	1
0	32166	19677.256520349142	0
0	32240	19771.925744390181	1
0	32241	19772.641420342487	0
0	32526	19914.263597777763	1
0	32591	19937.633062613214	0
0	32595	19938.658684379018	1
0	32596	19939.509912835824	0
0	32625	19959.740053124629	1
0	32626	19960.88355113831	0
0	32635	19963.704475419425	1
0	32636	19964.097882687654	0
0	32675	19998.550213258962	1
0	32676	19998.622340766726	0
0	32680	19998.639187306281	1
0	32682	19998.726245843302	2
0	32683	20000.269820525324	1
0	32686	20001.95728810971	0
0	32695	20004.147511891658	1
0	32697	20004.99670747724	2
0	32698	20005.524519819779	1
0	32701	20007.303054546019	0
0	32724	20012.820461121661	1
0	32729	20014.56874051926	2
0	32733	20016.532918159726	1
0	32736	20017.899589525784	0
0	32765	20040.140233731166	1
0	32766	20041.561770317547	0
0	32825	20078.421815101769	1
0	32826	20078.641783482325	0
0	32844	20083.744647671039	1
0	32861	20090.524024957162	0
0	32872	20092.859086497569	1
0	32881	20097.27104397763	0
0	32894	20099.331558866127	1
0	32908	20103.465353135253	2
0	32923	20110.909570352664	1
0	32936	20115.67277383667	0
0	33105	20248.859443251654	1
0	33116	20253.634845950927	0
0	33210	20313.155109574008	1
0	33211	20314.143532218821	0
0	33352	20417.934166189759	1
0	33356	20420.308873774295	0
0	33370	20427.230201437644	1
0	33371	20428.321877261904	0
0	33385	20436.323192945873	1
0	33386	20437.423114117188	0
0	33427	20468.63772012246	1
0	33431	20471.379265327565	0
0	33440	20474.18607306239	1
0	33441	20474.966010983288	0
0	33445	20476.199086031236	1
0	33446	20476.88563726861	0
0	33455	20480.211985287257	1
0	33461	20481.792205975849	0
0	33490	20524.914350475951	1
0	33496	20527.725988163255	0
0	33524	20537.621760690475	1
0	33529	20538.547507112927	2
0	33538	20542.682127731857	1
0	33546	20546.197308603493	0
0	33580	20612.032701741127	1
0	33581	20612.731849183218	0
0	33735	20708.49034547686	1
0	33736	20709.334735635697	0
0	33765	20719.192215254183	1
0	33766	20720.906694892991	0
0	33775	20723.341886825115	1
0	33776	20724.045502964231	0
0	33790	20728.153691867339	1
0	33791	20729.190627314007	0
0	33840	20754.082366461921	1
0	33861	20759.400818292653	2
0	33873	20764.148576021619	1
0	33882	20766.495747648305	2
0	33883	20767.878563559666	1
0	33892	20770.370704176948	2
0	33893	20771.484332352369	1
0	33912	20776.113211051375	2
0	33933	20783.370947445049	1
0	33942	20786.130799400677	2
0	33948	20788.264172952674	1
0	33951	20790.233054974354	0
0	33957	20791.436917595137	1
0	33964	20792.927785138303	2
0	33968	20794.618375628866	1
0	33979	20797.080829742954	2
0	33993	20803.001354903593	1
0	34002	20804.648594063438	2
0	34003	20805.647265156969	1
0	34016	20809.706558725289	0
0	34027	20811.301895428949	1
0	34066	20825.587924720212	0
0	34090	20833.644948139171	1
0	34091	20834.345723034007	0
0	34185	20915.521239762543	1
0	34186	20916.121286474505	0
0	34260	20965.542999868662	1
0	34266	20968.160077890257	0
0	34279	20971.372814709841	1
0	34386	21006.910977138457	0
0	34410	21035.012544863285	1
0	34411	21035.964461220754	0
0	34420	21038.301493750262	1
0	34427	21039.757539033993	2
0	34428	21040.599315697095	1
0	34431	21041.858257570817	0
0	34570	21130.041141060051	1
0	34571	21130.455828811015	0
0	34680	21182.88339205944	1
0	34681	21184.012246410867	0
0	34685	21184.446271815053	1
0	34686	21185.772361256873	0
0	34700	21192.502094928902	1
0	34701	21192.59611044272	0
0	34815	21248.114770313565	1
0	34816	21249.73600633156	0
0	34830	21255.637207732129	1
0	34831	21256.325202739621	0
0	34905	21307.971422696334	1
0	34906	21308.123849425451	0
0	34925	21314.638990664414	1
0	34926	21314.724581934498	0
0	34937	21316.796943838022	1
0	34941	21319.275798795545	0
0	34952	21322.208653004266	1
0	34956	21324.108497738453	0
0	35020	21357.738254819857	1
0	35021	21359.012463808105	0
0	35085	21407.536480312156	1
0	35086	21409.133130339567	0
0	35130	21425.455046091248	1
0	35131	21426.674124569052	0
0	35150	21437.014340085052	1
0	35151	21437.384353476422	0
0	35525	21703.18325195791	1
0	35526	21704.306762683563	0
0	35535	21706.410585764527	1
0	35537	21706.89287130987	2
0	35538	21707.561833357982	1
0	35541	21708.974099785633	0
0	35545	21710.180784796377	1
0	35546	21710.383611906118	0
0	35731	21845.654423147848	1
0	35743	21849.092276609945	2
0	35750	21851.683792635004	3
0	35771	21859.56116854674	4
0	35772	21859.894682891223	3
0	35780	21863.532951679568	2
0	35783	21865.127388680469	1
0	35792	21866.790928023061	2
0	35793	21868.16242422976	1
0	35797	21868.193833176524	2
0	35808	21872.845315528218	1
0	35811	21874.123712276969	0
0	35820	21878.519723653468	1
0	35821	21879.439415850265	0
0	35857	21908.987954148098	1
0	35861	21911.841762390109	0
0	35872	21918.315750585945	1
0	35876	21920.147388446672	0
0	35920	21949.180578642389	1
0	35921	21950.073561292878	0
0	35960	21976.343902154437	1
0	35961	21977.662199857214	0
0	36005	21993.817299377956	1
0	36006	21994.362632289964	0
0	36059	22016.573997295439	1
0	36081	22026.207917574205	0
0	36272	22146.44113781901	1
0	36281	22149.755500155593	0
0	36305	22182.434742642462	1
0	36306	22183.808691346137	0
0	36325	22196.066355001313	1
0	36331	22198.622009645214	0
0	36445	22253.749815960879	1
0	36446	22255.037104492113	0
0	36485	22281.915064680586	1
0	36486	22283.407423272999	0
0	36520	22296.267973810284	1
0	36526	22299.018515621281	0
0	36545	22305.625575993928	1
0	36546	22306.057744313412	0
0	36644	22342.996975085831	1
0	36656	22347.433638753096	0
0	36665	22349.898893181254	1
0	36667	22350.300119915759	2
0	36668	22350.564666305582	1
0	36677	22352.545661710555	2
0	36678	22354.14775019447	1
0	36681	22355.387471503119	0
0	36685	22355.546148434001	1
0	36696	22357.438199685315	2
0	36703	22361.832923543925	1
0	36707	22362.036237503105	2
0	36714	22363.758411571342	3
0	36715	22365.249466525304	2
0	36718	22366.811118996615	1
0	36726	22370.202121324192	0
0	36735	22373.682200065285	1
0	36736	22373.806603979522	0
0	36740	22374.177953801657	1
0	36742	22375.342128079755	2
0	36743	22375.35271396769	1
0	36751	22378.226579939405	0
0	36865	22467.579497590186	1
0	36871	22471.147491303988	0
0	36884	22473.829039005949	1
0	36957	22498.24082906243	2
0	36973	22504.549686997914	1
0	36982	22507.025986123997	2
0	36984	22507.086493045509	3
0	36985	22507.181254761824	2
0	36988	22508.542164310226	1
0	36991	22510.339150473447	0
0	36995	22510.346694088992	1
0	36996	22511.789410812938	0
0	37000	22512.938946926485	1
0	37001	22513.157355079213	0
0	37100	22599.552338631185	1
0	37106	22602.312209213429	0
0	37180	22635.695080983812	1
0	37216	22648.674587586523	0
0	37294	22698.51567973767	1
0	37306	22703.807901859597	0
0	37342	22714.7781218049	1
0	37346	22716.918200293027	0
0	37357	22719.638129326763	1
0	37366	22722.987016898983	0
0	37375	22725.963559546196	1
0	37376	22726.139684629843	0
0	37385	22736.417609859356	1
0	37386	22736.615813650249	0
0	37415	22752.121896020943	1
0	37416	22752.477587545803	0
0	37495	22826.638470626881	1
0	37496	22826.881837774171	0
0	37610	22882.971657095739	1
0	37616	22886.010018626692	0
0	37625	22890.512449883803	1
0	37626	22891.259194752422	0
0	37640	22895.363578777952	1
0	37641	22895.590172734395	0
0	37652	22897.868831536122	1
0	37656	22900.373077646926	0
0	37685	22910.432347896685	1
0	37696	22914.958638022737	0
0	37760	22951.886791679903	1
0	37761	22952.851947446838	0
0	37885	23024.216657467228	1
0	37886	23025.747434351773	0
0	38146	23202.42732053815	1
0	38177	23211.086437988913	2
0	38193	23216.838056017713	1
0	38201	23220.559020351314	0
0	38207	23221.215541984683	1
0	38216	23224.696748098799	0
0	38222	23225.907576027482	1
0	38226	23228.407851313681	0
0	38230	23229.128009728075	1
0	38231	23230.321587796763	0
0	38617	23505.464904057161	1
0	38621	23507.320080520164	0
0	38632	23509.180120186756	1
0	38636	23512.474703656461	0
0	38765	23571.764248254076	1
0	38766	23571.872244067087	0
0	38855	23639.216965771054	1
0	38861	23641.519575901308	0
0	39035	23770.89847463851	1
0	39036	23771.271026506887	0
0	39065	23779.988873930931	1
0	39066	23780.734464856839	0
0	39075	23783.014285970516	1
0	39076	23784.025077594674	0
0	39305	23955.591534819206	1
0	39306	23957.048162431939	0
0	39330	23967.895876328327	1
0	39331	23969.264859057822	0
0	39385	24000.196705405593	1
0	39386	24001.158719587783	0
0	39395	24011.848564962534	1
0	39396	24012.241783561433	0
0	39620	24182.406020850795	1
0	39621	24183.837068132428	0
0	39655	24221.932992440305	1
0	39656	24222.874873524077	0
0	39695	24251.338375751863	1
0	39696	24251.571483417634	0
0	39700	24252.250145128022	1
0	39701	24252.8785376998	0
0	39705	24253.479864008304	1
0	39706	24254.877298982102	0
0	39710	24256.388780786851	1
0	39711	24256.46273636784	0
0	39765	24286.104936738832	1
0	39781	24292.339840156374	0
0	39795	24296.200255129919	1
0	39796	24297.37797236232	0
0	39875	24346.902435189849	1
0	39891	24352.735028603431	0
0	40120	24487.487941520276	1
0	40121	24488.830676718016	0
0	40130	24491.946080234126	1
0	40131	24492.549140191224	0
0	40145	24496.668803289162	1
0	40147	24496.91520924971	2
0	40148	24498.307396351287	1
0	40151	24499.561303721668	0
0	40237	24527.303915417311	1
0	40241	24529.338589345943	0
0	40370	24600.386651902859	1
0	40376	24602.417896080189	0
0	40415	24631.58728261221	1
0	40416	24632.529628529944	0
0	40435	24641.478603143253	1
0	40436	24642.648062739428	0
0	40505	24671.668231278744	1
0	40511	24674.213252908863	0
0	40522	24675.83861583412	1
0	40526	24678.247320320955	0
0	40555	24692.045879979685	1
0	40556	24693.766891556274	0
0	40575	24711.844270516988	1
0	40576	24713.313014560484	0
0	40615	24751.81120726245	1
0	40616	24752.876197447511	0
0	40620	24753.632408596329	1
0	40621	24754.236250479775	0
0	40630	24758.537144591594	1
0	40631	24758.896689704536	0
0	40635	24759.097332683095	1
0	40642	24761.699473036157	2
0	40643	24762.377426432548	1
0	40646	24764.37696411564	0
0	40650	24765.290676762456	1
0	40651	24766.119368106229	0
0	40660	24769.586355922453	1
0	40667	24770.571866143556	2
0	40668	24771.564318167582	1
0	40677	24773.863405714111	2
0	40683	24775.953635914788	1
0	40686	24777.251916298621	0
0	40690	24777.263488236697	1
0	40691	24778.834912077129	0
0	40725	24813.957925456959	1
0	40726	24814.02107471584	0
0	40800	24877.162489327194	1
0	40801	24878.51708438863	0
0	40850	24974.875339644756	1
0	40851	24975.77906849336	0
0	40860	24977.766213586553	1
0	40861	24979.676486296096	0
0	40900	24993.386764208513	1
0	40901	24994.088682314158	0
0	40905	24995.046675256	1
0	40911	24997.731441338137	0
0	40922	25001.3379971103	1
0	40946	25009.442517254301	0
0	40955	25012.479473857792	1
0	40956	25012.588990738042	0
0	41235	25158.310949677115	1
0	41236	25158.770091070664	0
0	41395	25279.250052866918	1
0	41396	25279.934112630882	0
0	41430	25293.250790261025	1
0	41431	25293.37982300053	0
0	41435	25293.974055533042	1
0	41436	25295.221595179649	0
0	41450	25302.099590697217	1
0	41451	25302.689038417752	0
0	41560	25383.826143643066	1
0	41561	25385.208202934258	0
0	41575	25391.430889968269	1
0	41576	25392.476822949195	0
0	41592	25396.70285023493	1
0	41621	25407.011742393967	0
0	41632	25409.532917524049	1
0	41644	25412.528411733287	2
0	41678	25425.076634225357	1
0	41681	25426.412570561949	0
0	41685	25426.844133340633	1
0	41686	25427.811430258598	0
0	41690	25428.705830591834	1
0	41691	25429.485462215464	0
0	41707	25436.725894401246	1
0	41731	25445.209156808402	0
0	41785	25477.016309895378	1
0	41786	25477.25181136236	0
0	41795	25480.036927267946	1
0	41796	25480.885516473437	0
0	41815	25487.523170427709	1
0	41817	25487.70554722969	2
0	41818	25488.093487730223	1
0	41832	25491.55140281247	2
0	41856	25497.725562864584	3
0	41875	25505.146684554194	2
0	41893	25511.404446941403	1
0	41901	25514.876967447226	0
0	41915	25518.836700317762	1
0	41917	25519.44796583842	2
0	41923	25521.119283361707	1
0	41926	25522.616322899211	0
0	41950	25532.567721996064	1
0	41952	25532.961509322325	2
0	41953	25533.430430326804	1
0	41956	25535.1339840727	0
0	41965	25538.185526742336	1
0	41971	25541.094422108279	0
0	42100	25604.966515809657	1
0	42101	25606.125230483797	0
0	42110	25610.448302278222	1
0	42111	25611.882705002424	0
0	42135	25641.103673069413	1
0	42137	25641.353265678471	2
0	42138	25642.126780978791	1
0	42147	25644.897039272019	2
0	42148	25646.038302355833	1
0	42151	25647.500779259964	0
0	42170	25653.816381313574	1
0	42176	25656.697700225479	0
0	42265	25763.755745007704	1
0	42266	25764.424783902714	0
0	42285	25773.099996716236	1
0	42296	25777.649109847382	0
0	42305	25780.305643694533	1
0	42306	25780.711511721187	0
0	42320	25785.671533977406	1
0	42321	25785.760200600796	0
0	42475	25867.038307291259	1
0	42476	25868.536164320606	0
0	42685	26011.424743641439	1
0	42686	26013.352557530281	0
0	42700	26017.393391793356	1
0	42706	26019.967549804998	0
0	42725	26025.246552403318	1
0	42726	26026.389126228569	0
0	42730	26027.843759216842	1
0	42731	26028.122453806205	0
0	42742	26030.358843588454	1
0	42821	26057.762974982177	0
0	42900	26111.825607575424	1
0	42901	26111.988665384271	0
0	42987	26195.974425172224	1
0	42991	26198.922130226478	0
0	43092	26240.712141044284	1
0	43099	26242.653226295543	2
0	43133	26251.334913484895	3
0	43140	26252.595133333052	4
0	43152	26258.913291148525	3
0	43160	26261.652709152419	2
0	43173	26266.205063068177	1
0	43181	26269.511528724114	0
0	43210	26283.652236674631	1
0	43211	26285.058897888392	0
0	43240	26296.47188833321	1
0	43241	26297.737016350118	0
0	43377	26392.169825541429	1
0	43391	26397.179058240469	0
0	43407	26401.440309311492	1
0	43421	26408.076304172467	0
0	43480	26465.297518286458	1
0	43481	26466.318646892781	0
0	43490	26469.086929593778	1
0	43491	26470.158808028799	0
0	43505	26490.444073158242	1
0	43506	26490.708417495963	0
0	43687	26600.098542626564	1
0	43696	26604.138546880675	0
0	43715	26610.548780386887	1
0	43721	26613.179294078387	0
0	43762	26626.915049663131	1
0	43769	26629.383503255439	2
0	43778	26632.544597187236	1
0	43786	26636.229022197209	0
0	43790	26636.336648870579	1
0	43797	26637.617776437904	2
0	43803	26641.020518719934	1
0	43807	26641.58278544751	2
0	43813	26644.035150582313	1
0	43817	26645.189022176835	2
0	43828	26649.384500610798	1
0	43831	26650.816917917102	0
0	43957	26729.179300964738	1
0	43966	26732.521138167613	0
0	44132	26786.360411951936	1
0	44136	26788.464154616065	0
0	44145	26791.575946213617	1
0	44146	26791.90227463904	0
0	44170	26815.316896225787	1
0	44171	26816.488496199817	0
0	44369	26932.531641230485	1
0	44381	26938.211546960608	0
0	44437	26954.495835545761	1
0	44451	26959.792649491247	0
0	44455	26960.353413899269	1
0	44471	26963.130859102958	2
0	44473	26963.945745117164	3
0	44525	26981.484866562417	2
0	44528	26982.986965328573	1
0	44532	26983.398918056555	2
0	44539	26986.623559958671	3
0	44540	26986.732919864661	2
0	44551	26988.703096595724	3
0	44575	26999.094847983613	2
0	44583	27002.095364047333	1
0	44591	27005.800933610766	0
0	44610	27014.393612490066	1
0	44611	27014.825414665841	0
0	44655	27032.846653267167	1
0	44656	27033.912392207316	0
0	44825	27168.364482679467	1
0	44826	27169.218282370376	0
0	44842	27173.271383154493	1
0	44886	27189.293240715671	0
0	44920	27204.898500770552	1
0	44921	27205.009286740119	0
0	44930	27206.657179590818	1
0	44931	27207.985267150285	0
0	44950	27220.84790591699	1
0	44951	27221.414729328656	0
0	44960	27223.167620115119	1
0	44961	27223.963343428464	0
0	44985	27234.041096016023	1
0	44986	27235.305701230611	0
0	45130	27353.135930297497	1
0	45136	27356.123027244573	0
0	45320	27473.084171982929	1
0	45321	27474.28260392281	0
0	45475	27528.314198490645	1
0	45476	27529.4570329262	0
0	45645	27614.010557965518	1
0	45646	27614.369542010815	0
0	45655	27618.014987090724	1
0	45656	27619.123478057012	0
0	45690	27665.781741597663	1
0	45691	27666.10669114381	0
0	45722	27675.175495531661	1
0	45761	27689.233388343953	0
0	45792	27723.878443789617	1
0	45871	27747.916474073902	2
0	45918	27764.345609028578	1
0	45927	27767.253194265555	2
0	45928	27767.675417921632	1
0	45934	27768.612109497697	2
0	45938	27770.453262525923	1
0	45944	27771.528850104801	2
0	45949	27773.166678897196	3
0	45950	27773.85043774148	2
0	45964	27777.635927548277	3
0	45965	27778.917787844813	2
0	45968	27780.217839352167	1
0	45974	27781.349194455879	2
0	45989	27785.641798296252	3
0	45990	27786.214142655521	2
0	45993	27787.67057231938	1
0	45996	27789.053309072121	0
0	46000	27789.631308178432	1
0	46001	27790.651060193903	0
0	46007	27791.957682518277	1
0	46011	27793.89403095109	0
0	46020	27796.30733122719	1
0	46022	27797.196170246964	2
0	46023	27797.503661254361	1
0	46026	27798.905961433738	0
0	46030	27799.61191600825	1
0	46031	27800.376826110981	0
0	46197	27897.298389839555	1
0	46221	27906.493864747875	0
0	46320	28025.914492057677	1
0	46321	28025.96377459377	0
0	46380	28063.574898051998	1
0	46381	28064.413374421839	0
0	46434	28113.042358601583	1
0	46444	28114.679250074304	2
0	46548	28149.481299017265	1
0	46556	28152.192525841005	0
0	46560	28152.831704582138	1
0	46571	28156.700580322265	0
0	46575	28157.030793771349	1
0	46581	28159.920545966818	0
0	46707	28229.567810377614	1
0	46746	28242.793440139363	0
0	46755	28249.257616671345	1
0	46756	28249.569796621752	0
0	46817	28282.958409914367	1
0	46826	28287.283331333305	0
0	46839	28289.131154866044	1
0	46844	28290.69458920489	2
0	46863	28297.908176310564	1
0	46871	28301.39380831776	0
0	46895	28310.636768813049	1
0	46896	28310.993439079178	0
0	46985	28355.860346080101	1
0	46992	28356.253959386918	2
0	46994	28357.148501651815	3
0	46995	28357.515234777941	2
0	47009	28360.559692076651	3
0	47011	28361.550881696848	4
0	47012	28361.717312267473	3
0	47015	28363.264361194572	2
0	47019	28363.27691551975	3
0	47025	28366.614931988394	2
0	47039	28370.37422278954	3
0	47045	28373.119176218709	2
0	47048	28374.365845015695	1
0	47054	28376.03919061277	2
0	47059	28377.575719927968	3
0	47060	28377.76798964539	2
0	47063	28379.255073780431	1
0	47066	28380.540396598964	0
0	47070	28380.994962201573	1
0	47071	28382.31399892611	0
0	47075	28382.662171635546	1
0	47076	28383.567995728976	0
0	47080	28384.123554446642	1
0	47081	28384.817246420546	0
0	47155	28422.388115093289	1
0	47161	28425.043338957796	0
0	47192	28434.059327308866	1
0	47199	28436.461264312517	2
0	47238	28450.242001418242	1
0	47246	28453.359296109559	0
0	47325	28488.620431622915	1
0	47349	28495.481843240576	2
0	47358	28499.297205025219	1
0	47367	28501.318352666949	2
0	47368	28502.554342278168	1
0	47416	28519.969065935611	0
0	47427	28522.773579795124	1
0	47481	28538.332733628281	2
0	47508	28549.643222330585	1
0	47516	28553.115293174311	0
0	47525	28554.969696555713	1
0	47526	28555.822851470187	0
0	47652	28630.672980840166	1
0	47661	28634.806203745432	0
0	47745	28694.067248232842	1
0	47746	28694.707458945426	0
0	47755	28697.43373747663	1
0	47756	28697.713867732573	0
0	47760	28697.847104455326	1
0	47762	28699.564671803503	2
0	47763	28699.595708709273	1
0	47767	28701.022364729539	2
0	47768	28701.549729177977	1
0	47772	28702.194318831212	2
0	47774	28702.578199104891	3
0	47781	28703.960351253277	4
0	47783	28704.68406351506	5
0	47784	28705.215648815098	4
0	47787	28706.44032350375	3
0	47791	28707.088266150088	4
0	47792	28708.306813250917	3
0	47795	28709.75264058734	2
0	47798	28711.647185817051	1
0	47802	28712.080673837619	2
0	47808	28715.001032752793	1
0	47811	28716.272341801475	0
0	47815	28716.373837105605	1
0	47824	28718.187763952709	2
0	47826	28719.601900656271	3
0	47830	28720.941265077952	2
0	47839	28723.329372693691	3
0	47840	28724.794041977328	2
0	47848	28727.948827081611	1
0	47851	28729.157735263062	0
0	47860	28732.667957292371	1
0	47861	28733.211461538309	0
0	47875	28738.644866681204	1
0	47876	28739.401890560461	0
0	47885	28741.322319984027	1
0	47886	28742.862243392168	0
0	47905	28749.432700612336	1
0	47906	28750.666163378327	0
0	48152	28929.254595397441	1
0	48156	28931.649014389038	0
0	48167	28933.467851806106	1
0	48176	28938.329514381929	0
0	48260	28998.284974907567	1
0	48261	28999.70093299998	0
0	48342	29044.843517471278	1
0	48346	29046.832342933935	0
0	48460	29127.92809528876	1
0	48466	29129.771123864506	0
0	48545	29158.484261238097	1
0	48546	29158.494400889487	0
0	48560	29162.720940227405	1
0	48561	29163.022112992653	0
0	48570	29165.078260472758	1
0	48571	29166.859788536371	0
0	48585	29172.431069033959	1
0	48586	29173.140362382252	0
0	48595	29177.362772940565	1
0	48596	29178.961986113384	0
0	48615	29191.27768550694	1
0	48616	29191.704381302253	0
0	48650	29218.828261502819	1
0	48651	29220.325940656048	0
0	48735	29295.727023628681	1
0	48741	29298.173796509926	0
0	48757	29303.970058213614	1
0	48779	29309.78160368178	2
0	48803	29319.474913682914	1
0	48842	29330.015941036766	2
0	48858	29334.712936139604	1
0	48861	29336.488015671199	0
0	48865	29336.73854510235	1
0	48866	29338.043839760436	0
0	48907	29376.753886224065	1
0	48911	29378.851048896126	0
0	48929	29383.516806537103	1
0	48936	29386.641825461424	0
0	48982	29402.146354048062	1
0	49001	29408.438895441226	0
0	49030	29428.009300342106	1
0	49031	29428.485230181012	0
0	49072	29483.25552873837	1
0	49076	29485.40405252921	0
0	49080	29485.819877331804	1
0	49081	29487.111794020707	0
0	49090	29489.406866027701	1
0	49092	29490.200842217079	2
0	49093	29490.811598681012	1
0	49101	29493.775272969441	0
0	49105	29493.974659089875	1
0	49106	29495.167633961053	0
0	49160	29533.104923669654	1
0	49161	29533.83769915193	0
0	49255	29616.271853392064	1
0	49256	29617.125041902952	0
0	49265	29618.599660019865	1
0	49271	29621.988350512604	0
0	49345	29692.529181496179	1
0	49346	29693.64376425064	0
0	49435	29755.193898360133	1
0	49437	29756.141199194197	2
0	49438	29756.289327108698	1
0	49446	29759.137814777928	0
0	49700	29971.249993038157	1
0	49706	29973.997851914004	0
0	49730	29987.339869455139	1
0	49732	29987.978764780009	2
0	49733	29988.185051108778	1
0	49736	29989.814197020859	0
0	49745	29993.870940585966	1
0	49746	29993.955389973964	0
1	16515	10010.58470043691	1
1	16516	10011.31598756597	0
1	16530	10022.469971169941	1
1	16531	10023.617554514349	0
1	16535	10023.997006151243	1
1	16536	10025.134326846391	0
1	16540	10025.229181672882	1
1	16541	10026.623858926125	0
1	16565	10037.710427178058	1
1	16567	10038.506075374499	2
1	16568	10038.523696876986	1
1	16571	10040.462938877491	0
1	16610	10068.018416407734	1
1	16611	10069.26874869801	0
1	16615	10069.340861134305	1
1	16617	10070.113223535522	2
1	16618	10071.163525905832	1
1	16621	10072.607557646371	0
1	16625	10073.002864066235	1
1	16627	10073.590667956212	2
1	16628	10074.099121469631	1
1	16631	10075.676248269714	0
1	16665	10099.257270779503	1
1	16666	10100.738893843569	0
1	16670	10100.893417503086	1
1	16672	10102.050072907621	2
1	16673	10102.076712253258	1
1	16677	10102.946520641478	2
1	16678	10103.53554757455	1
1	16681	10105.314669812411	0
1	16685	10106.301743542374	1
1	16686	10107.011562887147	0
1	16695	10109.387321976139	1
1	16696	10110.978218752318	0
1	16735	10143.370679268804	1
1	16736	10144.69758671824	0
1	16740	10145.553118613926	1
1	16741	10146.325416350217	0
1	16780	10192.574536074736	1
1	16781	10192.799393748171	0
1	16805	10228.049612750639	1
1	16806	10228.565765748872	0
1	16810	10229.463496371948	1
1	16811	10230.321316993749	0
1	16820	10256.924997431745	1
1	16821	10258.34777863728	0
1	16825	10259.755076899389	1
1	16826	10259.871180597079	0
1	16870	10298.23998517343	1
1	16871	10299.27129113638	0
1	16905	10332.239509418291	1
1	16906	10333.530817716555	0
1	16915	10335.481319256071	1
1	16917	10335.512268481442	2
1	16918	10337.163599616666	1
1	16921	10339.047201523748	0
1	16925	10339.236826392152	1
1	16927	10340.215352266449	2
1	16928	10340.644980411608	1
1	16931	10342.413920446489	0
1	16985	10392.192337954365	1
1	16986	10392.570540097395	0
1	16995	10397.707447146279	1
1	16997	10398.607261910638	2
1	16998	10398.814242844661	1
1	17002	10398.879831105727	2
1	17004	10399.765849972546	3
1	17005	10400.135758523648	2
1	17009	10400.61480488919	3
1	17011	10401.852814507796	4
1	17012	10402.020999098947	3
1	17016	10402.554676037726	4
1	17017	10403.636179381055	3
1	17021	10403.649041179205	4
1	17022	10405.347099114028	3
1	17026	10407.054854487086	4
1	17027	10407.094050721643	3
1	17030	10408.358522741315	2
1	17033	10409.96608874761	1
1	17036	10411.914940071483	0
1	17040	10412.215563555318	1
1	17041	10413.649761538771	0
1	17050	10419.764466599104	1
1	17051	10420.604956847478	0
1	17055	10420.688101215199	1
1	17056	10422.466982262444	0
1	17060	10422.774934479101	1
1	17061	10424.317846866001	0
1	17082	10433.932415684871	1
1	17083	10435.091495617036	0
1	17125	10466.882290488627	1
1	17126	10467.941118083411	0
1	17130	10468.4540683033	1
1	17131	10469.801408181974	0
1	17135	10469.919683266297	1
1	17136	10471.392304209137	0
1	17170	10483.440662998087	1
1	17171	10484.637963001575	0
1	17210	10520.540188312716	1
1	17211	10521.687018355031	0
1	17225	10530.252544339693	1
1	17226	10531.066598809294	0
1	17235	10533.612723997219	1
1	17236	10533.9459885407	0
1	17250	10539.923644698259	1
1	17251	10541.060255834758	0
1	17255	10541.759627652841	1
1	17256	10542.384747552797	0
1	17260	10543.689442197193	1
1	17261	10544.022407462932	0
1	17270	10545.886271000472	1
1	17272	10547.19058850018	2
1	17273	10547.250290251508	1
1	17277	10548.081412746379	2
1	17278	10548.455196188561	1
1	17282	10548.615311665969	2
1	17283	10549.669890366479	1
1	17286	10550.960094989821	0
1	17295	10553.24236457063	1
1	17296	10554.500603141993	0
1	17347	10602.687230125166	1
1	17348	10603.574725405144	0
1	17355	10605.837639913895	1
1	17356	10607.017486726883	0
1	17380	10615.310814904826	1
1	17381	10616.618833382641	0
1	17385	10617.344043096955	1
1	17386	10618.334055172679	0
1	17390	10618.530346163922	1
1	17393	10619.687694867169	0
1	17397	10620.275624413408	1
1	17398	10621.510728168142	0
1	17415	10631.994474615057	1
1	17417	10632.297944650726	2
1	17418	10633.056522995087	1
1	17422	10633.128388727337	2
1	17423	10634.885261863696	1
1	17426	10636.832785079295	0
1	17442	10642.040587212419	1
1	17443	10642.04082518728	0
1	17447	10642.439265398072	1
1	17448	10644.017511742427	0
1	17455	10646.19300868705	1
1	17456	10647.009170494467	0
1	17480	10667.892743099945	1
1	17481	10668.925225627597	0
1	17490	10673.271532723073	1
1	17492	10673.437974418481	2
1	17493	10673.798534138507	1
1	17499	10674.706575069992	2
1	17500	10675.066717025271	1
1	17505	10676.517076996534	0
1	17509	10676.914685516647	1
1	17510	10678.31163678114	0
1	17514	10678.577364355186	1
1	17515	10679.883023022122	0
1	17580	10713.084138694932	1
1	17581	10713.680768734823	0
1	17605	10730.011192205704	1
1	17606	10730.898960089484	0
1	17620	10736.331193374541	1
1	17621	10737.211327678959	0
1	17625	10738.070174687091	1
1	17626	10738.774023814376	0
1	17635	10741.804978698157	1
1	17636	10742.043494750623	0
1	17642	10742.489816526882	1
1	17643	10743.611098136444	0
1	17647	10743.670061556032	1
1	17648	10745.085330860939	0
1	17655	10747.313265041871	1
1	17656	10747.754236315813	0
1	17660	10748.506004895174	1
1	17662	10748.633899091707	2
1	17663	10749.666070877452	1
1	17666	10751.429578446661	0
1	17675	10756.465950793362	1
1	17676	10757.774033384311	0
1	17735	10798.989767884568	1
1	17736	10800.54516349247	0
1	17740	10801.967110994352	1
1	17742	10802.121267136128	2
1	17743	10802.317357793062	1
1	17746	10803.69202189537	0
1	17750	10805.110903722345	1
1	17751	10805.290665839037	0
1	17755	10806.054959275502	1
1	17756	10806.706118051132	0
1	17760	10806.893172197735	1
1	17762	10807.054481450506	2
1	17763	10808.280016534013	1
1	17766	10809.764101833088	0
1	17770	10810.452672884788	1
1	17771	10810.977387994138	0
1	17775	10812.543244764101	1
1	17778	10812.786454138329	0
1	17782	10812.952273333901	1
1	17783	10814.149972750975	0
1	17795	10818.652535135248	1
1	17796	10819.918625156654	0
1	17800	10820.695587385078	1
1	17801	10821.504210314413	0
1	17840	10855.340074720842	1
1	17841	10856.909852258614	0
1	17845	10857.336200419083	1
1	17846	10858.561397994808	0
1	17850	10859.631890869376	1
1	17851	10859.913387094191	0
1	17855	10860.344346787356	1
1	17856	10861.146159855216	0
1	17880	10893.373677399714	1
1	17881	10893.433113260203	0
1	17885	10894.005728083151	1
1	17886	10894.75068467223	0
1	17895	10898.147001610878	1
1	17896	10898.285048428187	0
1	17900	10898.770582697135	1
1	17901	10899.968335523466	0
1	17905	10901.097790862097	1
1	17906	10901.718436533409	0
1	17940	10939.720042048234	1
1	17941	10940.191092083286	0
1	17955	10950.45328172707	1
1	17956	10951.407206199552	0
1	17960	10952.015354145472	1
1	17961	10953.321941327537	0
1	17970	10957.332680364049	1
1	17971	10958.045085437085	0
1	18000	10995.011268205193	1
1	18001	10995.183108414583	0
1	18005	10995.432786975259	1
1	18006	10997.029903789856	0
1	18010	10997.050324809857	1
1	18012	10997.521446754506	2
1	18013	10998.282382614412	1
1	18017	10998.740623701837	2
1	18018	11000.163659986541	1
1	18022	11000.362952629402	2
1	18024	11001.081616486909	3
1	18025	11001.781053669066	2
1	18029	11003.276582960198	3
1	18030	11003.713185024136	2
1	18033	11005.428188665831	1
1	18036	11007.418026968525	0
1	18040	11008.857873432857	1
1	18041	11009.279946233952	0
1	18045	11010.113271700437	1
1	18046	11010.916286270754	0
1	18050	11011.304332242359	1
1	18051	11012.300791828209	0
1	18055	11012.320841218306	1
1	18056	11013.689128340655	0
1	18060	11013.799571817662	1
1	18061	11015.082609523521	0
1	18080	11033.404004520285	1
1	18081	11033.745486032417	0
1	18090	11037.834143574395	1
1	18091	11038.115715801971	0
1	18095	11038.213226938863	1
1	18096	11039.538352871383	0
1	18100	11040.140836674438	1
1	18101	11041.138062202068	0
1	18105	11041.922139927728	1
1	18106	11042.456290713953	0
1	18110	11043.225155273403	1
1	18111	11043.774934573727	0
1	18120	11050.344019865172	1
1	18122	11051.21191397368	2
1	18123	11051.682543918728	1
1	18127	11052.117719937591	2
1	18128	11053.584446957014	1
1	18131	11055.271956553921	0
1	18170	11071.163011445462	1
1	18171	11072.192167790374	0
1	18175	11073.146073510757	1
1	18176	11073.479582024878	0
1	18185	11076.553198519154	1
1	18186	11076.614591317785	0
1	18190	11077.6826291453	1
1	18192	11078.218317689002	2
1	18194	11078.316675502699	3
1	18195	11078.576282579799	2
1	18199	11078.832504624871	3
1	18202	11080.448373133291	2
1	18205	11082.0256000431	1
1	18209	11083.06926526332	2
1	18210	11083.337568030295	1
1	18213	11084.883940264371	0
1	18220	11087.622876345782	1
1	18221	11088.096901817967	0
1	18270	11122.436171973786	1
1	18271	11123.292158808992	0
1	18290	11135.727442132583	1
1	18291	11136.564998671453	0
1	18315	11152.021734816688	1
1	18316	11153.337901217191	0
1	18325	11156.67582355178	1
1	18326	11157.44609218464	0
1	18340	11171.704334582163	1
1	18342	11173.446219766085	2
1	18343	11173.629761048251	1
1	18347	11174.4720167139	2
1	18348	11175.057711319656	1
1	18352	11175.130743820472	2
1	18353	11176.805626738288	1
1	18357	11178.1881541561	2
1	18358	11178.223188845285	1
1	18362	11178.671578543761	2
1	18363	11179.852270352871	1
1	18367	11180.264869531425	2
1	18368	11181.811182283454	1
1	18371	11183.430999806367	0
1	18375	11183.597683900785	1
1	18376	11185.294698674262	0
1	18385	11188.603101102226	1
1	18386	11188.757777175866	0
1	18390	11189.170036349791	1
1	18392	11189.586433016399	2
1	18393	11190.12032440938	1
1	18396	11191.810876913182	0
1	18400	11193.53520530528	1
1	18401	11193.691340286098	0
1	18405	11194.197342073617	1
1	18406	11195.023036944679	0
1	18465	11252.129945550706	1
1	18466	11253.104302076564	0
1	18475	11257.477881843319	1
1	18476	11258.601908306368	0
1	18505	11287.472203813881	1
1	18506	11289.13029123026	0
1	18510	11289.973247133996	1
1	18511	11290.949166271119	0
1	18540	11305.190209391833	1
1	18541	11305.373318224922	0
1	18570	11320.04177618705	1
1	18571	11320.210870647695	0
1	18590	11337.921473093511	1
1	18592	11338.114813867922	2
1	18593	11338.304025424075	1
1	18598	11339.838415103768	0
1	18602	11341.018100988457	1
1	18603	11341.316117705581	0
1	18607	11341.359872492256	1
1	18609	11342.024524617616	2
1	18610	11343.128228532885	1
1	18613	11344.905421005924	0
1	18617	11345.38914132006	1
1	18618	11346.717813995284	0
1	18622	11346.758170988807	1
1	18624	11348.2725674391	2
1	18625	11348.401887943585	1
1	18630	11350.36719960681	0
1	18634	11351.067544584166	1
1	18636	11351.486660555948	2
1	18637	11351.858569415834	1
1	18640	11353.067917361658	0
1	18655	11363.734732979485	1
1	18657	11364.885001202783	2
1	18658	11365.117654210958	1
1	18661	11367.111546703498	0
1	18670	11375.681817393623	1
1	18671	11376.501951526545	0
1	18710	11401.029245711738	1
1	18711	11401.347730158234	0
1	18715	11402.655155872422	1
1	18717	11402.826635040158	2
1	18718	11402.888487540709	1
1	18721	11404.521276040154	0
1	18725	11405.485354290106	1
1	18726	11406.255400289188	0
1	18730	11406.491478285615	1
1	18731	11407.625328964892	0
1	18770	11442.98417266976	1
1	18771	11444.019945147107	0
1	18775	11445.650319413629	1
1	18776	11445.840895175407	0
1	18800	11461.836806735468	1
1	18801	11462.419077591174	0
1	18805	11462.756980296876	1
1	18806	11464.115146682732	0
1	18810	11464.255346522096	1
1	18811	11465.932249414496	0
1	18815	11466.372914251172	1
1	18817	11466.579186995384	2
1	18818	11467.214221043646	1
1	18822	11468.004926161785	2
1	18823	11468.514724528923	1
1	18827	11469.23764173192	2
1	18828	11469.858237628213	1
1	18832	11470.750862947228	2
1	18833	11471.214577093667	1
1	18836	11472.526941952615	0
1	18840	11472.577131877283	1
1	18842	11473.347749861655	2
1	18843	11473.815692113101	1
1	18847	11474.871713472009	2
1	18849	11475.36223655629	3
1	18850	11475.406881235301	2
1	18853	11476.806809399783	1
1	18856	11478.754767333291	0
1	18860	11478.814070106943	1
1	18862	11480.242647713843	2
1	18864	11480.281869493019	3
1	18865	11480.648113765887	2
1	18868	11482.374954531661	1
1	18871	11483.735567815921	0
1	18875	11483.955363598836	1
1	18876	11485.731964079424	0
1	18885	11490.437129077987	1
1	18887	11491.22397163403	2
1	18888	11491.26487264694	1
1	18892	11491.75320558602	2
1	18893	11492.744128101927	1
1	18896	11494.575918497939	0
1	18900	11495.037283939822	1
1	18901	11495.94103083634	0
1	18910	11497.95199821494	1
1	18911	11498.947965096506	0
1	18920	11515.945552069209	1
1	18921	11516.570625399577	0
1	18940	11534.131735795764	1
1	18941	11535.118371592255	0
1	19010	11668.799653858928	1
1	19011	11670.107047365329	0
1	19015	11670.37343782817	1
1	19017	11670.459596132001	2
1	19018	11671.307760346777	1
1	19021	11673.189520528636	0
1	19027	11674.365753358371	1
1	19028	11674.982281567811	0
1	19047	11680.991327082421	1
1	19049	11681.361631346683	2
1	19050	11681.486254331282	1
1	19053	11682.925428387521	0
1	19057	11682.997359652722	1
1	19058	11684.636498005873	0
1	19062	11685.772067132526	1
1	19063	11685.945099915376	0
1	19070	11687.8858912025	1
1	19072	11687.959994433583	2
1	19073	11689.223910603112	1
1	19076	11691.089361690728	0
1	19080	11692.027025634151	1
1	19081	11693.046804885937	0
1	19105	11729.535431849089	1
1	19106	11730.196992817197	0
1	19120	11738.810229455002	1
1	19121	11738.903451653973	0
1	19135	11746.255937330204	1
1	19137	11747.415116275923	2
1	19138	11747.997375503763	1
1	19141	11749.821190097205	0
1	19145	11750.187136595397	1
1	19146	11751.43349686677	0
1	19167	11761.976585356904	1
1	19168	11763.410912155293	0
1	19172	11763.520705759038	1
1	19175	11764.906027684666	0
1	19200	11780.932699557448	1
1	19201	11782.182655672308	0
1	19225	11794.819883798438	1
1	19226	11795.093539320683	0
1	19260	11820.364033423609	1
1	19261	11821.132756897035	0
1	19265	11821.419894289996	1
1	19267	11822.096053457126	2
1	19268	11822.377487152602	1
1	19271	11824.356993708174	0
1	19280	11827.936343143394	1
1	19281	11829.321332390542	0
1	19285	11830.041054192873	1
1	19286	11831.216003063443	0
1	19290	11831.594064244721	1
1	19291	11832.82231119399	0
1	19295	11834.124443390606	1
1	19296	11834.372868402237	0
1	19305	11836.944575087371	1
1	19306	11837.446472916606	0
1	19325	11870.671095600577	1
1	19326	11872.421672394945	0
1	19345	11882.525995995066	1
1	19348	11883.572312501086	0
1	19352	11884.434403994977	1
1	19353	11884.783370692669	0
1	19357	11884.851844508356	1
1	19358	11885.991988809979	0
1	19412	11931.657230125066	1
1	19413	11932.225709863956	0
1	19422	11935.047732768812	1
1	19423	11935.084290899726	0
1	19450	11947.932339819029	1
1	19451	11949.051403019301	0
1	19455	11949.663814706572	1
1	19456	11950.893126262076	0
1	19460	11952.009520129384	1
1	19461	11952.338180780507	0
1	19465	11953.141362699837	1
1	19466	11953.5972092093	0
1	19470	11954.927984056341	1
1	19471	11955.081187721252	0
1	19480	11958.254347607156	1
1	19481	11960.124582288777	0
1	19490	11972.39249852788	1
1	19492	11972.758848179516	2
1	19493	11972.840050789961	1
1	19496	11974.467156249346	0
1	19515	11998.684130774686	1
1	19516	11999.381268542936	0
1	19520	12000.311579261945	1
1	19521	12000.77644485694	0
1	19525	12000.936290020089	1
1	19526	12002.187249953604	0
1	19530	12003.520422000756	1
1	19531	12004.102045433527	0
1	19545	12008.098903538939	1
1	19547	12008.135632562707	2
1	19548	12009.659770434629	1
1	19551	12011.529886199254	0
1	19565	12018.172174382619	1
1	19567	12018.62217212222	2
1	19568	12018.804191432525	1
1	19572	12019.92072736641	2
1	19573	12020.764001668621	1
1	19576	12022.214540978152	0
1	19580	12022.530871339183	1
1	19582	12022.761813938532	2
1	19583	12023.712349401977	1
1	19586	12025.253545740623	0
1	19595	12027.137539283395	1
1	19596	12028.816447249422	0
1	19600	12029.016872991811	1
1	19604	12030.44509422103	2
1	19605	12030.628953174124	1
1	19608	12031.866985435034	0
1	19612	12033.660479004757	1
1	19613	12033.71392438076	0
1	19675	12112.864996032916	1
1	19676	12113.414863720713	0
1	19680	12113.525586547794	1
1	19683	12115.209969325913	0
1	19687	12115.52084811232	1
1	19688	12116.899918807289	0
1	19692	12117.588306894054	1
1	19693	12118.653924814789	0
1	19715	12126.996522215781	1
1	19716	12128.270514728775	0
1	19750	12160.4838966044	1
1	19751	12161.845396657442	0
1	19755	12162.063771721012	1
1	19757	12162.857052935527	2
1	19758	12163.416072424283	1
1	19762	12164.404470708455	2
1	19763	12165.111920281654	1
1	19767	12165.559828775765	2
1	19768	12166.633263969389	1
1	19771	12168.279313775492	0
1	19780	12173.307026895629	1
1	19781	12174.190263891392	0
1	19785	12174.50239199727	1
1	19788	12176.092369878464	0
1	19795	12177.640176459908	1
1	19797	12178.32708529215	2
1	19798	12178.504608363458	1
1	19801	12179.857509418563	0
1	19810	12182.653312233181	1
1	19811	12184.231559478456	0
1	19815	12184.356378281512	1
1	19817	12185.847762876255	2
1	19818	12186.187602560932	1
1	19822	12186.300298921147	2
1	19824	12186.578399659529	3
1	19826	12187.381889383195	4
1	19827	12187.766127822327	3
1	19830	12188.987829935143	2
1	19833	12190.756884887034	1
1	19837	12191.361031934546	2
1	19838	12192.657571602018	1
1	19841	12194.214269921148	0
1	19845	12194.553661896547	1
1	19846	12195.952146751771	0
1	19870	12221.756062527239	1
1	19871	12222.814648882422	0
1	19875	12224.30139491591	1
1	19876	12224.333645427349	0
1	19920	12253.616915540254	1
1	19922	12254.040158818357	2
1	19923	12254.208728741526	1
1	19929	12254.390552622014	2
1	19931	12255.631786768495	3
1	19932	12255.719941690049	2
1	19936	12256.005555138131	3
1	19937	12257.632328497476	2
1	19940	12259.135295385352	1
1	19944	12259.262044766562	2
1	19946	12260.248111171988	3
1	19947	12260.778679513788	2
1	19951	12261.055348877283	3
1	19952	12262.14027842213	2
1	19956	12263.172672583941	3
1	19957	12263.937884866861	2
1	19960	12265.144746657689	1
1	19964	12265.541996383609	2
1	19965	12266.536486085174	1
1	19969	12267.020985690917	2
1	19970	12268.083526952793	1
1	19973	12269.727002752428	0
1	19977	12270.567580954692	1
1	19978	12270.945943752346	0
1	19982	12271.412542806417	1
1	19983	12272.307901250241	0
1	19987	12274.017568655807	1
1	19988	12274.036862900523	0
1	19995	12276.026633812912	1
1	19997	12276.377724344919	2
1	19998	12277.245396345337	1
1	20001	12278.792723933649	0
1	20005	12278.976331636011	1
1	20006	12280.188989235689	0
1	20025	12294.931653780746	1
1	20026	12295.597731793881	0
1	20080	12338.651922526652	1
1	20081	12339.87041732568	0
1	20085	12340.056415078629	1
1	20086	12341.26747117426	0
1	20090	12341.496259000818	1
1	20091	12342.647734048886	0
1	20100	12346.052577084611	1
1	20102	12346.566816271852	2
1	20103	12346.906887527653	1
1	20106	12348.303423204743	0
1	20115	12350.524145263449	1
1	20116	12351.418682847204	0
1	20202	12426.234379891206	1
1	20203	12427.2916566161	0
1	20225	12434.54256168732	1
1	20226	12435.015339264984	0
1	20260	12455.19743517931	1
1	20261	12455.940467614433	0
1	20265	12455.94817971908	1
1	20266	12457.767036110847	0
1	20270	12457.808304896781	1
1	20272	12458.308554521373	2
1	20273	12459.232847227095	1
1	20276	12460.729238566695	0
1	20310	12509.20526444309	1
1	20311	12510.846572344027	0
1	20320	12514.278480252167	1
1	20321	12514.789146239668	0
1	20325	12514.847027985822	1
1	20326	12516.302910418607	0
1	20330	12516.875260611897	1
1	20331	12518.170720663838	0
1	20345	12549.474450426047	1
1	20346	12550.101558926427	0
1	20385	12579.081429430082	1
1	20386	12580.001897807609	0
1	20390	12581.201715213687	1
1	20391	12581.213838124279	0
1	20410	12602.918645904384	1
1	20411	12604.374770433944	0
1	20455	12651.169529470341	1
1	20456	12652.716265512208	0
1	20465	12657.06386133617	1
1	20466	12658.080262326728	0
1	20470	12658.984534364695	1
1	20471	12659.511075427662	0
1	20475	12661.080363423738	1
1	20476	12661.105172796826	0
1	20480	12662.689345649705	1
1	20481	12662.871255960594	0
1	20520	12703.52511648022	1
1	20521	12705.029086797623	0
1	20527	12706.594206112023	1
1	20528	12707.023172698854	0
1	20532	12707.025399767813	1
1	20533	12708.815138017884	0
1	20537	12709.3971523355	1
1	20538	12710.578156781508	0
1	20545	12713.169081855599	1
1	20546	12714.43681866893	0
1	20570	12752.605080468494	1
1	20571	12752.888344911383	0
1	20590	12771.707685081546	1
1	20591	12772.722316491663	0
1	20595	12774.032335130474	1
1	20596	12774.529054106272	0
1	20615	12789.758770964955	1
1	20616	12790.985939846971	0
1	20620	12792.104731500223	1
1	20623	12792.776117148102	0
1	20655	12810.188151879782	1
1	20660	12811.223921314945	0
1	20664	12811.625782455815	1
1	20665	12813.146946324912	0
1	20675	12816.559296341595	1
1	20676	12817.715555066747	0
1	20685	12819.973001890313	1
1	20687	12820.913606828934	2
1	20688	12821.441005012897	1
1	20693	12823.074240132739	0
1	20705	12828.191548521153	1
1	20706	12828.534884567036	0
1	20765	12889.008536912408	1
1	20766	12889.415010553654	0
1	20770	12889.458681580896	1
1	20771	12891.15769191185	0
1	20775	12891.46710982329	1
1	20777	12891.569566572277	2
1	20778	12892.66616163725	1
1	20781	12894.203102192152	0
1	20795	12899.187779620981	1
1	20796	12900.10864141155	0
1	20800	12900.877196415125	1
1	20801	12901.486729571782	0
1	20810	12904.874253426366	1
1	20811	12905.246081782587	0
1	20815	12905.666412473175	1
1	20816	12906.588079707034	0
1	20820	12906.705941908968	1
1	20821	12908.222458498076	0
1	20860	12934.662231173427	1
1	20862	12934.843076522787	2
1	20863	12936.398828861585	1
1	20867	12937.616056483058	2
1	20868	12938.231705607941	1
1	20872	12938.343600531889	2
1	20873	12939.445527394397	1
1	20876	12941.195747311508	0
1	20880	12941.241332252329	1
1	20881	12942.683179131245	0
1	20890	12948.588359228275	1
1	20891	12949.225847348363	0
1	20900	12951.386566494922	1
1	20901	12952.26877615282	0
1	20905	12952.751861857858	1
1	20906	12953.682638900892	0
1	20912	12954.643649945966	1
1	20913	12955.236273398602	0
1	20925	12962.635750981431	1
1	20926	12963.292718970732	0
1	20935	12965.89585777801	1
1	20936	12966.248614955277	0
1	20942	12967.214881003578	1
1	20943	12967.761426704706	0
1	20955	12974.096438898988	1
1	20956	12974.344347306829	0
1	20965	12976.990509494184	1
1	20966	12977.964890304324	0
1	21030	13042.791593091008	1
1	21031	13043.013475665384	0
1	21070	13085.341686716117	1
1	21071	13085.798390526545	0
1	21090	13124.50918446065	1
1	21091	13126.159325126959	0
1	21095	13127.036512285098	1
1	21096	13127.839064261531	0
1	21100	13128.076492925169	1
1	21101	13129.075598962819	0
1	21110	13130.965250452677	1
1	21111	13132.331860734356	0
1	21120	13134.131509286011	1
1	21122	13135.18488691542	2
1	21124	13135.998248327208	3
1	21125	13136.005016298581	2
1	21129	13136.232332160836	3
1	21130	13137.285343875911	2
1	21133	13138.87082941829	1
1	21137	13139.326212575527	2
1	21139	13140.162293028252	3
1	21140	13140.210481233697	2
1	21144	13140.609599915931	3
1	21145	13141.714568703051	2
1	21149	13142.925522518343	3
1	21150	13143.257949087384	2
1	21154	13143.972127752424	3
1	21156	13144.158812933134	4
1	21158	13144.268567180599	5
1	21159	13144.821963468182	4
1	21163	13145.807992006172	5
1	21164	13146.468123711634	4
1	21167	13147.781896775949	3
1	21173	13149.425669831846	4
1	21174	13149.716293036926	3
1	21178	13150.095090678835	4
1	21179	13151.406039254169	3
1	21182	13153.014161090541	2
1	21185	13154.220741497527	1
1	21188	13155.476425944629	0
1	21197	13157.765718070671	1
1	21198	13159.268431409436	0
1	21202	13160.566222502767	1
1	21204	13160.706797956929	2
1	21205	13161.103705526876	1
1	21208	13162.462918094347	0
1	21212	13163.844724139113	1
1	21213	13164.269532978895	0
1	21217	13164.659747654985	1
1	21219	13165.342543571976	2
1	21221	13165.7655165362	3
1	21222	13165.998473064589	2
1	21225	13167.726956027548	1
1	21229	13168.137461254287	2
1	21230	13169.016042586777	1
1	21234	13169.024139735341	2
1	21235	13170.473876220721	1
1	21238	13171.689729049604	0
1	21245	13173.776592397118	1
1	21247	13173.959506759331	2
1	21249	13175.097174889379	3
1	21250	13175.443128197629	2
1	21253	13177.130092026655	1
1	21256	13178.622700619687	0
1	21295	13202.756428989494	1
1	21296	13203.091128697305	0
1	21300	13203.34934788349	1
1	21301	13204.351220488048	0
1	21315	13209.229542607674	1
1	21316	13209.909580972167	0
1	21320	13211.055227694283	1
1	21321	13211.759472739073	0
1	21325	13212.485245361994	1
1	21326	13213.70163148244	0
1	21330	13214.099526171135	1
1	21332	13214.446562249201	2
1	21333	13215.318208851042	1
1	21336	13217.285420351411	0
1	21340	13218.672650550799	1
1	21341	13218.793522963422	0
1	21350	13222.020449040954	1
1	21351	13222.568629080282	0
1	21355	13222.930833350283	1
1	21356	13224.013247027287	0
1	21360	13225.415463441228	1
1	21361	13225.561312502103	0
1	21370	13227.474094685835	1
1	21371	13228.722234027313	0
1	21375	13229.792761959713	1
1	21376	13230.230766992869	0
1	21380	13230.773395908941	1
1	21383	13231.683978171313	0
1	21410	13256.064186273507	1
1	21411	13257.307619200713	0
1	21415	13257.885171743796	1
1	21416	13258.855937869727	0
1	21420	13259.405886497592	1
1	21421	13260.703941322371	0
1	21430	13263.590428476152	1
1	21431	13264.1732423973	0
1	21445	13269.131811880587	1
1	21446	13270.059415134881	0
1	21465	13277.662685781393	1
1	21467	13277.711048880763	2
1	21469	13277.94847196412	3
1	21470	13278.133453636275	2
1	21474	13279.090912337154	3
1	21475	13280.111510810287	2
1	21478	13281.651421804943	1
1	21481	13283.310940387689	0
1	21485	13283.624474611638	1
1	21486	13285.289623608098	0
1	21500	13290.636295676165	1
1	21502	13290.952483960166	2
1	21503	13292.17262811518	1
1	21506	13293.540937040622	0
1	21510	13294.309306340303	1
1	21511	13295.254935671451	0
1	21515	13296.227547742751	1
1	21516	13296.455962272982	0
1	21520	13297.061771560591	1
1	21521	13298.371895239192	0
1	21555	13320.374417283981	1
1	21556	13320.38136256984	0
1	21560	13321.023077486717	1
1	21561	13321.633023640649	0
1	21565	13321.705093154475	1
1	21566	13323.093896568888	0
1	21570	13323.454123392678	1
1	21571	13325.009485627101	0
1	21585	13341.566540884071	1
1	21587	13342.725023004841	2
1	21588	13343.443772335145	1
1	21591	13345.202918038125	0
1	21595	13345.425097215894	1
1	21596	13346.46067541221	0
1	21600	13346.86114187787	1
1	21601	13348.429917025918	0
1	21630	13381.141682643114	1
1	21631	13382.757640432755	0
1	21635	13383.524374273121	1
1	21636	13384.46064598188	0
1	21640	13385.377925448541	1
1	21641	13386.133889959382	0
1	21645	13387.182376670478	1
1	21646	13387.57578539327	0
1	21650	13388.524043783565	1
1	21651	13389.292239090616	0
1	21690	13424.696753619229	1
1	21691	13425.879417499828	0
1	21710	13435.915233231127	1
1	21711	13436.397675462495	0
1	21715	13436.402784493281	1
1	21717	13436.974942680884	2
1	21718	13437.771633869279	1
1	21722	13439.585784275906	2
1	21723	13439.594523276444	1
1	21727	13439.597660637265	2
1	21728	13441.210114826131	1
1	21732	13441.256711065628	2
1	21734	13442.303048002247	3
1	21735	13442.825674665029	2
1	21739	13443.430761863111	3
1	21740	13444.140659921299	2
1	21744	13444.549822754128	3
1	21745	13445.477658382113	2
1	21748	13447.281373141575	1
1	21752	13448.874477040103	2
1	21753	13449.047178041245	1
1	21757	13449.430529052618	2
1	21760	13450.663559932317	1
1	21764	13451.607845865572	2
1	21767	13452.19269349059	1
1	21771	13453.158436394206	2
1	21772	13453.923597230258	1
1	21776	13454.987622292775	2
1	21777	13455.189930613207	1
1	21781	13455.822087849282	2
1	21782	13456.786111530343	1
1	21786	13456.944697936585	2
1	21787	13458.17850986501	1
1	21791	13459.278720020154	2
1	21793	13460.133386998533	3
1	21794	13460.139331442358	2
1	21798	13461.864466432494	3
1	21799	13461.965124541016	2
1	21802	13463.239165042022	1
1	21806	13464.006571321901	2
1	21808	13464.068711942065	3
1	21809	13464.790424922162	2
1	21813	13464.891240541476	3
1	21814	13466.405157741026	2
1	21818	13466.490574122416	3
1	21819	13467.646753024177	2
1	21822	13469.238509138727	1
1	21825	13470.49358458543	0
1	21837	13475.078071995179	1
1	21838	13475.341135690042	0
1	21842	13476.317303503566	1
1	21843	13476.652966909536	0
1	21849	13477.512318045219	1
1	21851	13477.520020166387	2
1	21853	13477.631533070153	3
1	21856	13478.149646362343	2
1	21860	13478.185700338586	3
1	21863	13479.65815883191	2
1	21869	13481.067500386816	3
1	21870	13481.096323297598	2
1	21873	13482.5429389956	1
1	21876	13484.41619752688	0
1	21880	13484.590365766546	1
1	21881	13486.18320710478	0
1	21885	13487.192023581482	1
1	21887	13487.375609369347	2
1	21888	13487.781913549878	1
1	21892	13488.144690178216	2
1	21893	13489.507503885269	1
1	21897	13490.266398556086	2
1	21898	13490.958516966231	1
1	21902	13491.812172088922	2
1	21903	13492.65312805032	1
1	21906	13494.590373078972	0
1	21913	13497.484906606258	1
1	21914	13497.746476549148	0
1	21921	13499.657037587344	1
1	21922	13500.782174232468	0
1	21931	13502.838343471194	1
1	21932	13503.460855096817	0
1	21936	13503.843054298765	1
1	21937	13504.687241455965	0
1	21946	13506.771938763073	1
1	21947	13507.433760977962	0
1	21953	13508.92970772691	1
1	21956	13509.137432394975	0
1	21963	13511.424225428404	1
1	21964	13512.335224834883	0
1	21973	13515.557158724372	1
1	21974	13515.957592761383	0
1	21986	13519.864735507045	1
1	21987	13520.56593397563	0
1	21996	13522.29805724674	1
1	21997	13523.567121486232	0
1	22004	13526.532231655568	1
1	22005	13527.193032306485	0
1	22040	13547.810333871957	1
1	22043	13548.781424243823	0
1	22050	13551.064214238842	1
1	22053	13552.531592250317	0
1	22062	13555.730672738931	1
1	22063	13556.121537736505	0
1	22100	13591.258468836054	1
1	22101	13592.19676797295	0
1	22110	13595.170225341207	1
1	22111	13596.242497658881	0
1	22120	13600.711940312816	1
1	22121	13600.87103433211	0
1	22125	13601.205097427421	1
1	22126	13602.10123581451	0
1	22140	13606.468127310664	1
1	22141	13607.766766640573	0
1	22145	13607.837771169333	1
1	22146	13609.64312179017	0
1	22150	13610.222384460836	1
1	22151	13611.3420418436	0
1	22155	13611.664869788737	1
1	22157	13612.328934246948	2
1	22158	13613.230899956852	1
1	22161	13615.032174344949	0
1	22165	13615.832481473213	1
1	22166	13616.508920109301	0
1	22175	13618.899790880495	1
1	22176	13619.268555955431	0
1	22180	13619.420035555495	1
1	22181	13620.982149444363	0
1	22185	13621.77006236848	1
1	22186	13622.675472127302	0
1	22205	13635.191918175458	1
1	22206	13635.384708195611	0
1	22220	13639.041865005365	1
1	22222	13639.538855812769	2
1	22223	13640.285760206898	1
1	22228	13641.64878258275	0
1	22232	13641.751655929546	1
1	22233	13643.181206233968	0
1	22250	13652.586898349792	1
1	22251	13653.229624446925	0
1	22255	13654.429572547773	1
1	22256	13654.530900719647	0
1	22260	13655.422952728312	1
1	22261	13656.01477957226	0
1	22265	13656.495147533596	1
1	22266	13657.348610587862	0
1	22275	13659.262746144535	1
1	22277	13659.287430918716	2
1	22278	13660.758163676144	1
1	22281	13662.687304531143	0
1	22290	13666.673553018537	1
1	22291	13666.677690914317	0
1	22300	13668.731419475647	1
1	22303	13670.615359059086	0
1	22307	13670.617645241769	1
1	22308	13671.879814497678	0
1	22312	13673.184135701856	1
1	22313	13673.393047407194	0
1	22320	13675.511458801268	1
1	22321	13676.421907883807	0
1	22335	13680.930732638396	1
1	22336	13681.865088514701	0
1	22350	13688.830298068156	1
1	22351	13690.58795861884	0
1	22360	13694.704380409044	1
1	22361	13695.273582554145	0
1	22380	13731.347723595649	1
1	22381	13732.03187356999	0
1	22405	13751.905256201768	1
1	22406	13752.235621787567	0
1	22430	13771.559223647785	1
1	22431	13772.178031429636	0
1	22510	13827.261077677216	1
1	22511	13827.964882047251	0
1	22515	13828.512090896602	1
1	22516	13829.238694504053	0
1	22520	13829.492646989811	1
1	22521	13830.827902485766	0
1	22530	13833.572326951673	1
1	22533	13834.127110120316	0
1	22585	13892.019163152915	1
1	22586	13893.385768901558	0
1	22590	13893.858633726054	1
1	22592	13894.699857866302	2
1	22593	13895.358432958835	1
1	22596	13896.722651472316	0
1	22600	13897.422816033947	1
1	22601	13898.135324896687	0
1	22605	13898.425270021831	1
1	22607	13899.140033624882	2
1	22608	13899.630541276933	1
1	22611	13901.093825292402	0
1	22630	13911.337386072892	1
1	22631	13912.257579390317	0
1	22645	13920.805762819888	1
1	22646	13921.030004043358	0
1	22650	13922.263784320773	1
1	22651	13922.557569954957	0
1	22655	13923.009706686085	1
1	22656	13924.397053729783	0
1	22660	13924.720722118079	1
1	22661	13925.84848956209	0
1	22670	13935.612897551922	1
1	22671	13936.22389417048	0
1	22680	13938.190212290813	1
1	22681	13939.28264070596	0
1	22685	13939.512993628691	1
1	22686	13941.10832343656	0
1	22695	13943.296029619722	1
1	22698	13944.938684686873	0
1	22702	13945.789360376638	1
1	22703	13946.736228461232	0
1	22707	13946.931370943209	1
1	22708	13948.199834644463	0
1	22715	13949.810986735591	1
1	22717	13950.798224029784	2
1	22718	13950.968352140527	1
1	22722	13951.727404511004	2
1	22723	13952.58565314677	1
1	22726	13954.113964725886	0
1	22730	13954.811117513618	1
1	22731	13955.832173626166	0
1	22790	14008.832876040613	1
1	22792	14009.270294818646	2
1	22793	14010.082298718327	1
1	22796	14011.801132293352	0
1	22810	14029.375713582847	1
1	22811	14030.534897056455	0
1	22815	14031.114389863133	1
1	22816	14031.785881466465	0
1	22820	14032.714747175887	1
1	22822	14033.236295328222	2
1	22823	14033.348424238013	1
1	22827	14034.218502285857	2
1	22828	14034.780199071066	1
1	22832	14034.975895866431	2
1	22833	14036.578261127555	1
1	22836	14038.351224019797	0
1	22845	14043.272697167829	1
1	22846	14044.796853521011	0
1	22850	14045.11517053048	1
1	22851	14046.532618648104	0
1	22860	14049.279582113669	1
1	22861	14050.75690400625	0
1	22870	14054.472931439278	1
1	22871	14055.629704062329	0
1	22875	14055.79455108182	1
1	22876	14056.992328658388	0
1	22900	14088.369486386773	1
1	22901	14089.028054747339	0
1	22905	14090.081153394027	1
1	22906	14090.366817040536	0
1	22910	14090.528950582232	1
1	22911	14091.955321448277	0
1	22920	14094.95788818274	1
1	22921	14095.814908298032	0
1	22955	14114.064887251138	1
1	22956	14115.01333953777	0
1	22960	14115.659308219327	1
1	22961	14116.980222806909	0
1	22965	14118.276772220003	1
1	22966	14118.414188449659	0
1	22970	14118.80067769789	1
1	22971	14119.732416002095	0
1	22990	14127.114375490269	1
1	22992	14127.801464266134	2
1	22993	14128.553864327871	1
1	22997	14129.109714825531	2
1	23000	14130.091442156077	1
1	23004	14131.002802563733	2
1	23005	14131.624429569819	1
1	23009	14132.606870347305	2
1	23010	14133.256312576176	1
1	23013	14135.009974424036	0
1	23017	14135.024178990411	1
1	23019	14135.27404779881	2
1	23021	14136.142389355487	3
1	23022	14136.624370240288	2
1	23025	14138.492398876192	1
1	23028	14140.488822009096	0
1	23050	14153.566861714763	1
1	23053	14154.649038195781	0
1	23057	14155.596801694675	1
1	23058	14156.066414271652	0
1	23067	14158.546346882592	1
1	23068	14159.211697846635	0
1	23072	14159.253426896735	1
1	23075	14160.745108501411	0
1	23085	14166.037476639165	1
1	23086	14166.194429496101	0
1	23110	14215.682304612971	1
1	23111	14217.17753783625	0
1	23180	14265.826796721644	1
1	23181	14266.547698793009	0
1	23187	14267.442442190241	1
1	23188	14268.072762155913	0
1	23192	14269.366085777445	1
1	23193	14269.566760035239	0
1	23197	14270.367910907545	1
1	23198	14271.532364228375	0
1	23202	14272.980926147731	1
1	23203	14273.40721766819	0
1	23207	14273.781064337059	1
1	23208	14275.091860339984	0
1	23212	14275.600170374125	1
1	23213	14276.860493116647	0
1	23220	14279.840030071284	1
1	23221	14279.974676977665	0
1	23225	14280.732540075238	1
1	23227	14281.07350232772	2
1	23228	14281.857811013617	1
1	23232	14283.755111120038	2
1	23233	14283.847222440698	1
1	23237	14284.97002374517	2
1	23238	14285.413464916506	1
1	23242	14286.239438716534	2
1	23243	14287.095161025607	1
1	23247	14287.390158528698	2
1	23248	14288.732582955071	1
1	23252	14289.173815532209	2
1	23254	14289.445946897493	3
1	23255	14290.221422936962	2
1	23258	14291.957784449504	1
1	23262	14293.139541718806	2
1	23263	14293.315566873745	1
1	23267	14294.105605638548	2
1	23269	14294.66503532966	3
1	23270	14294.717363085606	2
1	23274	14295.97041136256	3
1	23275	14295.981498598688	2
1	23278	14297.365326206208	1
1	23282	14298.497497989841	2
1	23283	14299.191818727561	1
1	23287	14299.958815145212	2
1	23289	14300.448357588041	3
1	23290	14300.718500912011	2
1	23294	14300.797065395206	3
1	23295	14302.135728423491	2
1	23299	14302.227644326539	3
1	23301	14302.270511268102	4
1	23303	14303.717437725561	5
1	23304	14304.094321856096	4
1	23308	14304.281532034366	5
1	23309	14305.828907717026	4
1	23312	14307.352409756004	3
1	23315	14309.054585435434	2
1	23319	14309.083046574845	3
1	23320	14310.425919918722	2
1	23323	14311.954965452483	1
1	23327	14313.870457578612	2
1	23328	14313.949674785143	1
1	23331	14315.750915473705	0
1	23335	14315.776238043501	1
1	23336	14317.055589812441	0
1	23340	14317.232540360079	1
1	23341	14318.268550579069	0
1	23350	14320.369259981159	1
1	23352	14321.016226492594	2
1	23353	14321.743994071897	1
1	23356	14323.476971636902	0
1	23360	14325.353201102219	1
1	23361	14325.448400083932	0
1	23365	14325.706000238845	1
1	23366	14327.143633164468	0
1	23370	14327.788267500946	1
1	23371	14329.066293246115	0
1	23375	14330.412316365267	1
1	23376	14330.428293670902	0
1	23385	14333.539267352978	1
1	23387	14333.666464318212	2
1	23389	14334.336887968209	3
1	23391	14334.669548562724	4
1	23392	14335.339062695452	3
1	23396	14335.850787649544	4
1	23397	14336.649245867194	3
1	23400	14338.40645487594	2
1	23404	14338.54693035749	3
1	23406	14338.918936374776	4
1	23407	14340.161335272217	3
1	23411	14340.83139463392	4
1	23412	14341.474078313136	3
1	23415	14342.712374737175	2
1	23419	14343.701848481859	3
1	23420	14343.980557359258	2
1	23424	14344.359038770561	3
1	23425	14345.377384796055	2
1	23429	14345.417583346521	3
1	23430	14346.787987598093	2
1	23433	14348.031253358783	1
1	23436	14349.730305801393	0
1	23497	14416.055678420875	1
1	23498	14416.735722967449	0
1	23545	14473.112913287665	1
1	23546	14473.693416854731	0
1	23550	14474.016544754879	1
1	23551	14475.188073498934	0
1	23555	14475.312138009968	1
1	23557	14475.335977429949	2
1	23558	14476.855250551544	1
1	23561	14478.835024096064	0
1	23580	14489.267804546787	1
1	23581	14489.930596131595	0
1	23615	14522.213972620945	1
1	23618	14523.867849517103	0
1	23625	14526.334701525109	1
1	23626	14527.483122055653	0
1	23630	14527.926913681948	1
1	23631	14529.293509321335	0
1	23635	14530.19590769196	1
1	23637	14530.321083901712	2
1	23638	14530.502157462995	1
1	23641	14531.71371915904	0
1	23650	14534.933166910624	1
1	23651	14535.0354405577	0
1	23655	14535.848573966345	1
1	23656	14536.565752705809	0
1	23660	14538.085510177356	1
1	23661	14538.356470808637	0
1	23680	14551.070130586039	1
1	23681	14551.348842417738	0
1	23690	14553.642087136525	1
1	23691	14554.701617888091	0
1	23695	14554.845151363106	1
1	23697	14555.770892873822	2
1	23700	14556.471770967832	1
1	23704	14557.952527527722	2
1	23705	14557.985824738546	1
1	23709	14559.062359737303	2
1	23710	14559.393001031606	1
1	23714	14559.70105491119	2
1	23715	14561.321403320237	1
1	23719	14561.81086605432	2
1	23721	14562.049349499643	3
1	23722	14562.587924130551	2
1	23725	14564.013536178238	1
1	23729	14564.682557080972	2
1	23731	14564.771476466345	3
1	23732	14565.215737328409	2
1	23736	14565.570236178604	3
1	23738	14566.373320376011	4
1	23740	14566.563164007751	5
1	23741	14566.862543805606	4
1	23744	14568.557139562174	3
1	23748	14569.606484925584	4
1	23749	14570.314937235332	3
1	23754	14571.650249347753	2
1	23757	14573.144786455399	1
1	23761	14574.16994799963	2
1	23762	14575.070875629141	1
1	23765	14576.633283667556	0
1	23769	14577.377040099019	1
1	23770	14578.290573876827	0
1	23774	14578.537842779187	1
1	23775	14579.630221781983	0
[...]
8	19340	11880.66705125834	1
8	19341	11881.868547398983	0
8	19475	11956.810106097444	1
8	19476	11958.148823983026	0
8	19574	12020.764001668621	1
8	19579	12022.530871339183	0
8	19792	12177.300870204889	1
8	19794	12177.640176459908	0
8	20095	12344.499666015913	1
8	20096	12345.576895259977	0
8	20110	12349.601520447158	1
8	20111	12349.864244972388	0
8	20450	12648.654925650091	1
8	20451	12651.090525527435	0
8	20650	12809.586575577721	1
8	20654	12810.188151879782	0
8	20661	12811.223921314945	1
8	20663	12811.625782455815	0
8	20805	12902.789972955547	1
8	20806	12903.642784558877	0
8	20885	12944.618067776134	1
8	20886	12947.910100919545	0
8	21115	13133.775811533464	1
8	21116	13134.037664260518	0
8	21131	13137.285343875911	1
8	21134	13138.87082941829	2
8	21138	13140.162293028252	1
8	21143	13140.609599915931	0
8	21186	13154.220741497527	1
8	21194	13157.3089509718	2
8	21196	13157.765718070671	1
8	21201	13160.566222502767	0
8	21214	13164.269532978895	1
8	21218	13165.342543571976	0
8	21226	13167.726956027548	1
8	21228	13168.137461254287	0
8	21490	13286.533308982507	1
8	21491	13288.133873439671	0
8	21495	13289.480710560919	1
8	21496	13290.324920575383	0
8	21507	13293.540937040622	1
8	21509	13294.309306340303	0
8	21512	13295.254935671451	1
8	21514	13296.227547742751	0
8	21803	13463.239165042022	1
8	21805	13464.006571321901	0
8	22105	13593.885390676353	1
8	22106	13594.317695515754	0
8	22115	13597.516837136785	1
8	22116	13599.520053559287	0
8	22282	13662.687304531143	1
8	22286	13664.755958453796	0
8	22295	13668.455925532288	1
8	22296	13668.70197532486	0
8	22675	13937.499161071511	1
8	22676	13938.015016959006	0
8	22817	14031.785881466465	1
8	22819	14032.714747175887	0
8	22840	14040.042859496595	1
8	22844	14043.272697167829	0
8	22847	14044.796853521011	1
8	22849	14045.11517053048	0
8	22852	14046.532618648104	1
8	22859	14049.279582113669	0
8	22865	14052.347749033071	1
8	22866	14054.408219000944	0
8	23217	14278.702979004391	1
8	23219	14279.840030071284	0
8	23229	14281.857811013617	1
8	23231	14283.755111120038	0
8	23234	14283.847222440698	1
8	23236	14284.97002374517	0
8	23332	14315.750915473705	1
8	23334	14315.776238043501	0
8	23337	14317.055589812441	1
8	23339	14317.232540360079	0
8	23345	14319.825534025771	1
8	23349	14320.369259981159	0
8	23372	14329.066293246115	1
8	23381	14333.361622949936	0
8	23401	14338.40645487594	1
8	23403	14338.54693035749	0
8	23552	14475.188073498934	1
8	23554	14475.312138009968	0
8	23645	14532.915403076682	1
8	23649	14534.933166910624	0
8	23726	14564.013536178238	1
8	23728	14564.682557080972	0
8	23733	14565.215737328409	1
8	23735	14565.570236178604	0
8	24092	14767.624636620782	1
8	24094	14767.681381356888	0
8	24106	14770.382091524206	1
8	24111	14772.168371258244	2
8	24116	14773.777307504339	1
8	24118	14773.886051683742	0
8	24129	14778.112756899684	1
8	24131	14778.144427807002	0
8	24205	14821.399088038811	1
8	24209	14822.411981089	0
8	24267	14841.066784882528	1
8	24269	14842.21111726552	0
8	24492	15017.990154933694	1
8	24502	15021.371963972735	2
8	24506	15025.150286842603	1
8	24509	15025.481050514332	0
8	24530	15032.9272221406	1
8	24531	15034.283839021788	0
8	24577	15059.625243468089	1
8	24579	15059.732869089152	0
8	24603	15066.44160691264	1
8	24605	15066.568403307703	0
8	24637	15079.051988882077	1
8	24639	15079.269071066343	0
8	24720	15102.619506736722	1
8	24722	15102.87440948781	0
8	24730	15106.2593937813	1
8	24735	15108.006941869918	0
8	24738	15108.677742298196	1
8	24740	15109.579831444549	0
8	24865	15167.346230699751	1
8	24866	15169.225150699745	0
8	24896	15177.15959543364	1
8	24901	15179.117187264579	2
8	24903	15180.264951399186	1
8	24905	15180.460895055427	0
8	24911	15182.917447474243	1
8	24913	15184.339569657967	0
8	24916	15184.354826755838	1
8	24922	15187.272002514654	2
8	24924	15189.012409932591	1
8	24929	15189.278084132376	0
8	25000	15211.532924698567	1
8	25001	15214.416195588266	0
8	25254	15420.274603021355	1
8	25259	15422.237663379894	2
8	25261	15423.460443493354	1
8	25263	15423.48925072455	0
8	25274	15426.82339079401	1
8	25276	15426.938911905847	0
8	25324	15442.741178581143	1
8	25326	15443.845008264172	0
8	25336	15445.640281881789	1
8	25339	15447.01698109063	2
8	25341	15447.144989967944	1
8	25343	15448.057606070638	0
8	25474	15508.346450392012	1
8	25478	15509.555420042157	0
8	25660	15617.03230559958	1
8	25661	15617.117062082091	0
8	25880	15718.235843210633	1
8	25881	15718.54105141917	0
8	25917	15746.888059274723	1
8	25920	15748.192591829841	2
8	25921	15748.703507341317	1
8	25924	15748.983525709137	0
8	25950	15759.311735994473	1
8	25951	15760.21372878993	0
8	26026	15799.387664456057	1
8	26028	15800.409520949035	0
8	26150	15876.638363996753	1
8	26151	15877.022663314407	0
8	26227	15927.603033954558	1
8	26229	15927.720864791672	0
8	26242	15932.355500251148	1
8	26247	15933.662847045716	2
8	26250	15935.542508682329	3
8	26251	15936.555372305602	2
8	26256	15941.082474065608	1
8	26260	15942.370130615717	2
8	26261	15945.353638809321	1
8	26264	15946.833297337652	0
8	26472	16057.042358216699	1
8	26476	16057.416336859703	0
8	26555	16085.478855556066	1
8	26556	16092.616601183407	0
8	26575	16100.17747146882	1
8	26576	16100.352140153609	0
8	26699	16203.499936763925	1
8	26701	16203.636178175406	0
8	26719	16209.72658814097	1
8	26721	16210.024836021417	0
8	26747	16218.974899125455	1
8	26749	16219.954092955822	0
8	26762	16223.869820983132	1
8	26764	16224.054942734553	0
8	26777	16227.959910462035	1
8	26779	16228.837606251447	0
8	26982	16376.740526245092	1
8	26985	16378.335177768697	2
8	26986	16379.77407957271	1
8	26989	16379.929551988309	0
8	27002	16385.09956695989	1
8	27004	16385.294382816589	0
8	27027	16392.76103123531	1
8	27033	16394.104813324817	0
8	27036	16394.541363582874	1
8	27038	16394.927543762001	0
8	27255	16546.793107017209	1
8	27256	16547.26876258903	0
8	27280	16556.838728367312	1
8	27281	16556.953931131032	0
8	27405	16647.290700347809	1
8	27406	16648.364619914299	0
8	27437	16658.094709146758	1
8	27439	16658.649493163536	0
8	27442	16659.885706657906	1
8	27444	16660.941372719282	0
8	27590	16737.006542693292	1
8	27591	16738.129843542828	0
8	27744	16813.546614563036	1
8	27756	16816.578206423054	2
8	27758	16817.838121884294	1
8	27766	16819.627178355249	2
8	27769	16821.119811128209	3
8	27771	16821.936403754076	2
8	27782	16825.901313763799	3
8	27784	16826.414187649683	2
8	27786	16826.56763063652	1
8	27794	16829.331810581413	0
8	27797	16830.257691583538	1
8	27801	16833.792623891804	0
8	27860	16886.596781981572	1
8	27864	16887.807440810269	0
8	28062	17000.734505464378	1
8	28066	17003.575345480903	0
8	28755	17405.722944941514	1
8	28756	17406.038334200315	0
8	29040	17554.994309711689	1
8	29041	17555.438385591604	0
8	29142	17673.441593237454	1
8	29144	17673.848793521882	0
8	29380	17838.763311729937	1
8	29381	17840.150867944098	0
8	29737	18051.794451902422	1
8	29739	18051.94777726748	0
8	29794	18088.166417115192	1
8	29796	18088.946927844782	0
8	29947	18171.20500125245	1
8	29949	18172.24623084688	0
8	30015	18218.404793599821	1
8	30016	18219.875061557635	0
8	30152	18345.791602198195	1
8	30154	18346.443977379659	0
8	30387	18502.035555358866	1
8	30389	18503.595637814094	0
8	30392	18503.919724967221	1
8	30396	18504.448901611036	0
8	30900	18880.229949591238	1
8	30907	18882.056406438385	2
8	30911	18882.88383181092	1
8	30918	18885.254581438656	0
8	30984	18905.793205570277	1
8	30986	18907.536718545075	0
8	30989	18907.63203897107	1
8	30994	18910.291617009356	0
8	31267	19085.232074665816	1
8	31271	19087.716204001971	0
8	32010	19549.014660356454	1
8	32014	19552.309791235999	0
8	32020	19554.217997093555	1
8	32024	19556.424972075578	0
8	32375	19866.689718235215	1
8	32379	19868.786072794691	0
8	32382	19869.036599151065	1
8	32384	19869.651907099742	0
8	32402	19875.572611458246	1
8	32404	19875.786067076663	0
8	32409	19876.920227068309	1
8	32418	19878.905638821933	0
8	32433	19883.982121424954	1
8	32435	19884.438776574952	0
8	32487	19904.087449776771	1
8	32489	19905.15254665601	0
8	32492	19905.926029814424	1
8	32496	19906.668283026483	0
8	32499	19907.311327605898	1
8	32506	19908.687917577172	0
8	32511	19910.173495432193	1
8	32513	19910.852920558854	0
8	32516	19911.379172380472	1
8	32518	19911.383007522414	0
8	32523	19913.364711739699	1
8	32527	19914.458865682104	0
8	32540	19917.61347888803	1
8	32542	19918.614495599065	0
8	32545	19918.967390548828	1
8	32547	19919.045268377971	0
8	32717	20012.30263817596	1
8	32719	20012.352614044907	0
8	32854	20087.468075873074	1
8	32856	20088.78190403858	0
8	32859	20089.273422811483	1
8	32862	20090.524024957162	2
8	32864	20090.932937331913	1
8	32866	20091.512218449406	0
8	32882	20097.27104397763	1
8	32886	20098.269942655943	0
8	32957	20122.501816864415	1
8	32959	20122.818260821191	0
8	33074	20231.256100164776	1
8	33076	20231.915102592028	0
8	33142	20261.36472524489	1
8	33146	20268.815738977164	0
8	33837	20753.997915095702	1
8	33841	20754.448820562244	0
8	33846	20755.49164947705	1
8	33848	20755.748366755108	0
8	33851	20756.73768142616	1
8	33853	20756.995380348706	0
8	33916	20777.535956711559	1
8	33918	20777.819044546397	0
8	34267	20968.160077890257	1
8	34269	20968.188103182455	0
8	34301	20978.041976491238	1
8	34303	20978.937269983769	0
8	34333	20988.414523871865	1
8	34338	20990.288231727946	0
8	34619	21159.960272545591	1
8	34621	21161.530469909447	0
8	34637	21167.218288279548	1
8	34639	21167.928019141696	0
8	34647	21170.607229700162	1
8	34649	21171.667354149564	0
8	34740	21213.918209700585	1
8	34744	21215.980687049778	0
8	34775	21227.861026445332	1
8	34776	21229.214856703774	0
8	35170	21443.693767195107	1
8	35171	21443.698018583834	0
8	35175	21445.254896034665	1
8	35176	21446.256456661773	0
8	35180	21447.697110375007	1
8	35181	21448.942986176824	0
8	35185	21450.888361807829	1
8	35186	21452.053011125514	0
8	35280	21550.061990632275	1
8	35281	21550.299389939966	0
8	35410	21617.221481376553	1
8	35411	21620.079892033644	0
8	35655	21820.743000643977	1
8	35656	21823.580024699797	0
8	35681	21829.845484126848	1
8	35687	21833.207793294009	2
8	35689	21833.40251750272	1
8	35691	21833.637130435838	0
8	36007	21994.362632289964	1
8	36016	21999.609761428746	0
8	36040	22012.132519577919	1
8	36041	22012.621135404625	0
8	36045	22014.381689014764	1
8	36051	22014.999035901887	0
8	36200	22106.972403820329	1
8	36201	22110.12178917593	0
8	36332	22198.622009645214	1
8	36334	22198.850617431211	0
8	36347	22202.920714479869	1
8	36351	22204.321526543014	0
8	36515	22295.604007457024	1
8	36516	22296.229056982479	0
8	36872	22471.147491303988	1
8	36874	22471.169833183749	0
8	36915	22482.32711252325	1
8	36917	22483.737967121939	0
8	37040	22527.676792125409	1
8	37041	22528.320228589948	0
8	37107	22602.312209213429	1
8	37114	22604.291864789789	0
8	37204	22643.578350277247	1
8	37206	22643.87132692272	0
8	37545	22859.771305154232	1
8	37546	22860.800930786565	0
8	37577	22871.191410132545	1
8	37579	22872.090555807394	0
8	37582	22873.054833155732	1
8	37586	22876.091624257991	0
8	37642	22895.590172734395	1
8	37644	22895.619124067282	0
8	37986	23099.338537805307	1
8	37988	23100.143393449045	0
8	37991	23100.567502001453	1
8	37993	23100.889678822824	0
8	38255	23241.128022769228	1
8	38256	23241.928927070209	0
8	38402	23319.027171261678	1
8	38404	23319.048975548285	0
8	38605	23501.406231644809	1
8	38609	23503.316121109541	0
8	38652	23517.788418943573	1
8	38654	23518.986507501819	0
8	38662	23521.32051732498	1
8	38664	23522.187340234137	0
8	38670	23523.814054194044	1
8	38674	23527.523270706599	0
8	38711	23539.260175825135	1
8	38714	23541.210780038537	2
8	38716	23541.79550339931	1
8	38718	23541.873815666936	0
8	38985	23750.243767921808	1
8	38986	23750.418787359741	0
8	39027	23768.064777585544	1
8	39029	23769.436664456928	0
8	39032	23769.88568810919	1
8	39037	23771.271026506887	2
8	39039	23772.0563960655	1
8	39044	23773.099566430522	0
8	39047	23774.067170632311	1
8	39051	23775.728808800229	0
8	39232	23898.59493954322	1
8	39234	23899.044478366063	0
8	39332	23969.264859057822	1
8	39334	23970.709327178361	0
8	39345	23973.680448392078	1
8	39346	23975.445661861722	0
8	39415	24030.5177191035	1
8	39416	24033.082331940513	0
8	39585	24162.019724076546	1
8	39586	24162.239721731544	0
8	39755	24281.63279722111	1
8	39761	24285.95466371586	0
8	39994	24440.553550899346	1
8	39998	24441.103478472181	0
8	40195	24515.317050594501	1
8	40196	24515.62166388233	0
8	40307	24572.066184817044	1
8	40309	24573.438364498031	0
8	40512	24674.213252908863	1
8	40514	24674.734308391513	0
8	41090	25111.960714786825	1
8	41091	25113.36953884346	0
8	41109	25118.029817299745	1
8	41111	25119.395762692925	0
8	41124	25122.939339764058	1
8	41126	25123.570444766738	0
8	41159	25133.004706032401	1
8	41161	25133.524856504607	0
8	41164	25134.913266426338	1
8	41166	25136.056523571238	0
8	41174	25138.241455760053	1
8	41176	25139.042164834489	0
8	41184	25140.964516533552	1
8	41186	25142.375919496127	0
8	41189	25142.480916713937	1
8	41192	25144.031931748441	2
8	41194	25144.326179784844	1
8	41196	25145.261565432332	0
8	41285	25199.835884894609	1
8	41286	25201.304033165743	0
8	41292	25202.560268608612	1
8	41297	25204.328147369196	2
8	41299	25204.987132361847	1
8	41304	25206.379907372122	0
8	41485	25324.151526007782	1
8	41486	25324.374220666952	0
8	41490	25325.708408177562	1
8	41491	25326.210579744498	0
8	41634	25409.820295717676	1
8	41636	25410.751091403588	0
8	41651	25414.744652481486	1
8	41655	25416.363107206558	0
8	41666	25420.10583231162	1
8	41668	25421.070218425824	0
8	41729	25443.782656917493	1
8	41732	25445.209156808402	2
8	41736	25447.244578728837	1
8	41739	25447.491755355668	0
8	41819	25488.093487730223	1
8	41821	25488.241372719066	0
8	41876	25505.146684554194	1
8	41878	25506.088517126586	0
8	42040	25583.286584315069	1
8	42044	25583.544510022522	0
8	42054	25587.041098473086	1
8	42056	25587.236678084944	0
8	42059	25588.440441916562	1
8	42061	25588.804172639918	0
8	42385	25806.795795663257	1
8	42386	25807.433396382923	0
8	42789	26045.975355788161	1
8	42791	26046.261265321073	0
8	42794	26047.382163058248	1
8	42796	26047.873012726181	0
8	42872	26085.823669225119	1
8	42874	26087.003130738576	0
8	42992	26198.922130226478	1
8	42994	26199.000491241802	0
8	43005	26203.829577171378	1
8	43006	26203.952200971373	0
8	43037	26213.825299627722	1
8	43039	26213.937935014896	0
8	43552	26514.360270533833	1
8	43554	26514.429349684732	0
8	43659	26591.363112577393	1
8	43661	26591.493848729792	0
8	43742	26621.035057210519	1
8	43744	26621.880918314961	0
8	43899	26679.33433060085	1
8	43901	26680.160250984348	0
8	43967	26732.521138167613	1
8	43969	26733.431458846535	0
8	43980	26737.085584479243	1
8	43981	26739.713677250476	0
8	44001	26744.130379185708	1
8	44005	26745.21044367836	0
8	44008	26745.593705941619	1
8	44012	26745.834915046802	0
8	44027	26750.154423044504	1
8	44029	26750.551161875092	0
8	44055	26759.868714997613	1
8	44057	26760.650268421209	0
8	44060	26761.516328550198	1
8	44062	26762.278516465118	0
8	44107	26777.915028326281	1
8	44111	26778.562684423487	0
8	44295	26904.977696309334	1
8	44299	26906.866381444673	0
8	44444	26956.999527981621	1
8	44449	26958.464652083744	2
8	44452	26959.792649491247	3
8	44456	26960.81294277587	2
8	44463	26961.563744904	1
8	44465	26962.848503305099	0
8	44503	26973.565997935389	1
8	44505	26974.2474537939	0
8	45110	27329.964484846247	1
8	45111	27330.437179993515	0
8	45115	27331.785403414865	1
8	45116	27334.668872910186	0
8	45137	27356.123027244573	1
8	45141	27358.535596309585	0
8	45427	27513.807437898739	1
8	45429	27513.816218935397	0
8	45540	27557.208786853455	1
8	45541	27557.753097520515	0
8	45734	27679.897666778915	1
8	45740	27680.441753042572	0
8	45824	27734.630158035027	1
8	45833	27736.879283841321	0
8	45838	27737.456047703268	1
8	45840	27738.147489911272	0
8	46462	28119.861875075185	1
8	46464	28120.755201340685	0
8	46484	28126.218939548628	1
8	46490	28127.343506853919	0
8	46498	28129.344635978611	1
8	46500	28130.599802329972	0
8	46503	28130.686282452466	1
8	46510	28133.273414351993	0
8	46702	28228.384202433633	1
8	46704	28228.505214490907	0
8	46827	28287.283331333305	1
8	46829	28288.251911124603	0
8	46996	28357.515234777941	1
8	46998	28357.52202713017	0
8	47305	28480.706173261067	1
8	47311	28481.868742234674	0
8	47317	28484.079032140988	1
8	47326	28489.400874137529	0
8	47329	28490.053243921773	1
8	47331	28490.974107936011	0
8	47334	28491.620590491855	1
8	47336	28492.56272115099	0
8	47341	28493.333948831895	1
8	47343	28494.005017303414	0
8	47417	28519.969065935611	1
8	47419	28521.001735600705	0
8	47429	28523.403866956084	1
8	47431	28524.288891719206	0
8	47448	28528.672742532268	1
8	47450	28529.467928614672	0
8	47463	28533.561105970367	1
8	47465	28534.893591326056	0
8	47478	28538.088308934383	1
8	47484	28538.65574072561	0
8	47540	28562.8054929663	1
8	47541	28563.853986265272	0
8	47662	28634.806203745432	1
8	47664	28635.113635374442	0
8	47670	28637.590766901277	1
8	47671	28638.150151689981	0
8	48157	28931.649014389038	1
8	48159	28932.150232689175	0
8	48275	29005.117159955483	1
8	48276	29005.755610757822	0
8	48392	29089.441785153779	1
8	48395	29091.146780370767	2
8	48396	29091.904748393016	1
8	48401	29094.321292305123	0
8	48410	29097.384695290532	1
8	48411	29100.158041938894	0
8	48447	29123.550992329609	1
8	48449	29124.533393232798	0
8	48452	29124.767626588796	1
8	48454	29126.716648090036	0
8	48457	29126.73914097995	1
8	48461	29128.242798854752	0
8	48464	29128.459690857869	1
8	48467	29129.771123864506	2
8	48469	29130.331556177537	1
8	48471	29130.981290186084	0
8	48547	29158.494400889487	1
8	48549	29159.377681237149	0
8	48791	29314.208408452324	1
8	48793	29314.619039430585	0
8	48801	29317.661621208987	1
8	48819	29323.950805446071	2
8	48821	29324.124107633111	1
8	48823	29324.222264301402	0
8	48826	29325.244192591434	1
8	48828	29326.148668873784	0
8	48831	29326.542337841479	1
8	48836	29329.008144111834	0
8	48839	29329.217281655347	1
8	48843	29330.056186067049	0
8	48912	29378.851048896126	1
8	48914	29379.615934262398	0
8	48937	29386.641825461424	1
8	48939	29388.065361315321	0
8	48950	29391.918482181094	1
8	48951	29393.048793030722	0
8	48984	29402.466387730098	1
8	48986	29403.138566440105	0
8	49194	29563.9619777791	1
8	49197	29565.338978904279	2
8	49199	29565.530856770736	1
8	49205	29568.79699091574	2
8	49206	29568.915491642778	1
8	49209	29569.167977917985	0
8	49380	29725.154268724872	1
8	49381	29726.841271878869	0
8	49620	29924.903391669167	1
8	49621	29925.115023838772	0
9	17540	10689.572910478344	1
9	17541	10691.09604220715	0
9	21839	13475.341135690042	1
9	21846	13477.426265559814	0
9	23682	14551.348842417738	1
9	23684	14552.766389257421	0
9	23824	14596.297465682878	1
9	23829	14598.20884080245	0
9	25772	15651.585748289848	1
9	25776	15653.283654965395	0
9	28219	17065.752086925572	1
9	28224	17067.836271809615	0
9	28235	17072.729996925658	1
9	28239	17075.712150799069	0
9	28242	17077.366608983965	1
9	28244	17077.924271670136	0
9	28249	17078.898794930556	1
9	28251	17079.013515284004	0
9	28410	17205.120447000619	1
9	28411	17207.308328135145	0
9	28425	17212.467435590197	1
9	28426	17217.504603603916	0
9	29245	17728.910454893248	1
9	29246	17729.172113626353	0
9	30177	18354.05192034987	1
9	30184	18357.257560080139	0
9	30207	18366.752602005201	1
9	30211	18367.405165927833	0
9	30222	18372.150202901858	1
9	30224	18373.183460696964	0
9	30585	18611.602109251638	1
9	30589	18613.572799065377	0
9	30615	18622.929692050663	1
9	30616	18626.058969599511	0
9	32692	20003.669328820904	1
9	32694	20004.147511891658	0
9	32705	20009.045451581491	1
9	32723	20012.820461121661	0
9	33450	20478.382482547126	1
9	33451	20479.301543004151	0
9	36724	22368.285892422038	1
9	36730	22371.64262302621	2
9	36731	22372.229708983393	1
9	36734	22373.682200065285	0
9	36737	22373.806603979522	1
9	36739	22374.177953801657	0
9	40625	24756.099409380438	1
9	40629	24758.537144591594	0
9	41780	25475.080108401721	1
9	41784	25477.016309895378	0
9	42157	25648.922752112537	1
9	42169	25653.816381313574	0
9	46017	27795.677136266172	1
9	46019	27796.30733122719	0
9	47072	28382.31399892611	1
9	47074	28382.662171635546	0
9	47752	28696.105351567331	1
9	47754	28697.43373747663	0
9	47855	28730.640846858238	1
9	47856	28731.801590838888	0

