version 2
run Third_exit_8-14-20191114-11:43:03-9044
attr configname Third_exit_8
attr datetime 20191114-11:43:03
attr experiment Third_exit_8
attr inifile omnetpp.ini
attr iterationvars ""
attr iterationvarsf ""
attr measurement ""
attr network ResponseTimeNetwork
attr processid 9044
attr repetition 14
attr replication #14
attr resultdir results
attr runnumber 14
attr seedset 14
param **.Source.interArrivalTime exponential(6s)
param **.jobPriority bernoulli(0.8)
param **.PS.serviceTimeU1 "uniform(1.2s, 2.0s)"
param **.PS.serviceTimeU2 "uniform(2.4s, 2.8s)"
param **.SS1.serviceTime exponential(1.4s)
param **.SS2.serviceTime exponential(2s)
param **.PS.exitProbability bernoulli(0.8)

vector 0 ResponseTimeNetwork.QueueU1 queueLength:vector ETV
attr interpolationmode sample-hold
attr title "queue length, vector"
vector 1 ResponseTimeNetwork.SS1 queueLength:vector ETV
attr interpolationmode sample-hold
attr title "queue length, vector"
vector 2 ResponseTimeNetwork.sink lifeTimeU1:vector ETV
attr interpolationmode none
attr title "lifetime of arrived jobs U1, vector"
attr unit s
vector 3 ResponseTimeNetwork.sink totalServiceTimeU1:vector ETV
attr interpolationmode none
attr title "the total time spent  by arrived jobs U1, vector"
attr unit s
vector 4 ResponseTimeNetwork.sink lifeTime:vector ETV
attr interpolationmode none
attr title "lifetime of arrived jobs, vector"
attr unit s
vector 5 ResponseTimeNetwork.sink totalServiceTime:vector ETV
attr interpolationmode none
attr title "the total time spent  by arrived jobs, vector"
attr unit s
vector 6 ResponseTimeNetwork.QueueU2 queueLength:vector ETV
attr interpolationmode sample-hold
attr title "queue length, vector"
0	31826	10000.693954866912	78
0	31827	10001.196369199056	77
0	31830	10002.897987842161	76
0	31834	10003.790424519943	77
0	31835	10004.754720478479	76
0	31839	10005.106606946038	77
0	31840	10006.245787009385	76
0	31844	10006.746703051755	77
0	31846	10006.762430023689	78
0	31847	10007.555242365759	77
0	31851	10008.308208078356	78
0	31852	10009.110148624119	77
0	31856	10010.268836962902	78
0	31858	10010.457103254669	79
0	31859	10010.770323812191	78
0	31863	10011.00923615279	79
0	31864	10012.594612209846	78
0	31868	10012.675587196627	79
0	31869	10013.950116585542	78
0	31873	10014.849818490535	79
0	31874	10015.632200549704	78
0	31878	10016.089846508633	79
0	31879	10016.942372517635	78
0	31883	10017.512287848649	79
0	31884	10018.329848717873	78
0	31887	10019.533268548709	77
0	31891	10020.702699547962	78
0	31892	10020.74101571047	77
0	31896	10021.483240871472	78
0	31897	10021.952174934906	77
0	31901	10022.919446745906	78
0	31902	10023.37988518772	77
0	31905	10024.6163071539	76
0	31909	10025.367473246117	77
0	31911	10026.059924609702	78
0	31913	10026.313539471415	79
0	31914	10026.407403126892	78
0	31918	10027.037190289505	79
0	31919	10028.252079723563	78
0	31922	10030.007689619411	77
0	31926	10030.057493836854	78
0	31928	10030.643770588698	79
0	31929	10031.394466884781	78
0	31932	10032.790953440007	77
0	31936	10033.821928812149	78
0	31938	10034.191031464407	79
0	31939	10034.495904531863	78
0	31943	10035.866863483495	79
0	31944	10035.996743718323	78
0	31948	10036.60602999921	79
0	31949	10037.595819084693	78
0	31953	10037.684478691989	79
0	31955	10037.710686280412	80
0	31956	10039.42854857349	79
0	31960	10039.504375234896	80
0	31961	10040.717356225636	79
0	31965	10041.720055426305	80
0	31967	10042.24692089429	81
0	31968	10042.315662519422	80
0	31972	10043.105699662867	81
0	31974	10043.627540757086	82
0	31979	10044.29157902037	81
0	31982	10045.755960156556	80
0	31986	10045.767471577115	81
0	31988	10046.544948662871	82
0	31989	10047.750656315472	81
0	31993	10048.667139447596	82
0	31994	10049.154755608525	81
0	31998	10050.053330102297	82
0	32000	10050.05535033963	83
0	32001	10050.573594591368	82
0	32005	10050.614234267755	83
0	32006	10052.414170884687	82
0	32010	10052.419120608746	83
0	32011	10053.646778583686	82
0	32015	10054.340392427996	83
0	32016	10055.323223328936	82
0	32020	10055.600902781582	83
0	32021	10056.793418377611	82
0	32025	10057.218189222415	83
0	32027	10057.883509643481	84
0	32028	10058.456918512444	83
0	32031	10059.849474881749	82
0	32035	10060.038322275361	83
0	32037	10060.374906229383	84
0	32039	10061.249561315174	85
0	32040	10061.515577743176	84
0	32043	10063.061808103669	83
0	32047	10063.44915505434	84
0	32048	10064.919335755866	83
0	32052	10065.425333097254	84
0	32054	10065.921438796324	85
0	32055	10066.305515661251	84
0	32058	10067.55482574885	83
0	32062	10069.34768280741	84
0	32063	10069.534153737288	83
0	32067	10069.851841406529	84
0	32069	10070.136386422697	85
0	32070	10070.967069654513	84
0	32073	10072.479607897226	83
0	32077	10072.501142397963	84
0	32079	10072.855761892776	85
0	32080	10073.991942808751	84
0	32084	10075.198662939534	85
0	32086	10075.296770003954	86
0	32087	10075.686672295231	85
0	32090	10077.231025287483	84
0	32094	10078.051088245199	85
0	32095	10079.143500143636	84
0	32099	10079.737188468947	85
0	32101	10080.537126845728	86
0	32102	10080.766715955149	85
0	32105	10082.13679917005	84
0	32109	10082.794149522831	85
0	32111	10083.026663566335	86
0	32113	10083.133622352784	87
0	32114	10084.003870779435	86
0	32118	10085.056881040719	87
0	32119	10085.762011783729	86
0	32122	10087.107405947121	85
0	32126	10088.338438672071	86
0	32127	10088.748981570052	85
0	32131	10089.460330442282	86
0	32133	10089.781889787222	87
0	32135	10089.816735237376	88
0	32136	10090.112002001489	87
0	32140	10090.119450718595	88
0	32141	10091.401928691911	87
0	32145	10092.61164278909	88
0	32146	10092.648638755801	87
0	32150	10092.807293255921	88
0	32151	10094.468899574662	87
0	32155	10094.552342884086	88
0	32156	10096.373671192835	87
0	32160	10096.607888637069	88
0	32161	10097.906307126741	87
0	32164	10099.83957922754	86
0	32168	10100.568836314928	87
0	32169	10101.600835934813	86
0	32173	10102.128968412627	87
0	32174	10103.573967385451	86
0	32178	10104.201824636188	87
0	32179	10105.07349322212	86
0	32185	10105.418082353065	87
0	32187	10106.31549409867	88
0	32188	10106.729430391985	87
0	32191	10108.322162186514	86
0	32195	10108.585908858544	87
0	32201	10109.842080987639	88
0	32202	10110.213953617561	87
0	32206	10110.758483360286	88
0	32208	10111.374863143045	89
0	32209	10111.751582276794	88
0	32213	10112.540670360599	89
0	32214	10113.408852069425	88
0	32218	10113.554662800623	89
0	32220	10113.758185776988	90
0	32221	10115.283695369	89
0	32224	10116.853348908173	88
0	32227	10118.41237795555	87
0	32230	10119.782415777603	86
0	32233	10121.469727676892	85
0	32236	10123.19727803559	84
0	32240	10123.456786412113	85
0	32242	10124.107635468473	86
0	32243	10124.541890390561	85
0	32247	10124.961672028642	86
0	32249	10124.987553024536	87
0	32251	10126.243605499015	88
0	32252	10126.503485049651	87
0	32256	10126.770760967004	88
0	32257	10127.81778984365	87
0	32261	10128.941285739667	88
0	32262	10129.151391921723	87
0	32265	10130.417494782032	86
0	32269	10130.864480980623	87
0	32270	10132.189739820333	86
0	32273	10133.801711736405	85
0	32276	10135.350382851781	84
0	32280	10135.483795180793	85
0	32282	10135.923076729458	86
0	32284	10136.004451081551	87
0	32286	10136.772296813354	88
0	32287	10137.064646910662	87
0	32291	10137.612894858089	88
0	32292	10138.31054793817	87
0	32296	10139.084121303458	88
0	32297	10140.023100134889	87
0	32301	10140.374663961104	88
0	32302	10141.333705522651	87
0	32305	10143.025293212729	86
0	32309	10144.15088919279	87
0	32310	10144.866013324792	86
0	32313	10146.40103185528	85
0	32316	10147.694094935032	84
0	32320	10148.76773792335	85
0	32321	10149.65001064946	84
0	32325	10151.056204748057	85
0	32326	10151.276256267513	84
0	32330	10151.589418830656	85
0	32333	10152.692525433349	84
0	32336	10154.30822551732	83
0	32340	10154.470068619679	84
0	32342	10155.781926497344	85
0	32343	10156.28624283352	84
0	32347	10156.8786423786	85
0	32349	10157.030860518313	86
0	32353	10157.489385268883	87
0	32354	10158.175132079581	86
0	32358	10158.851269806745	87
0	32359	10159.632060882049	86
0	32362	10160.89982772206	85
0	32366	10161.679064771351	86
0	32367	10162.397081555771	85
0	32371	10162.748404941485	86
0	32373	10162.94661163764	87
0	32375	10163.237238799652	88
0	32376	10164.089232575121	87
0	32380	10164.124999876537	88
0	32382	10164.477361034195	89
0	32384	10164.617378084559	90
0	32385	10165.625384343388	89
0	32393	10166.681823142412	90
0	32395	10167.315561681874	91
0	32396	10167.511350605237	90
0	32400	10168.690465334848	91
0	32403	10169.508857911053	90
0	32407	10169.861788475506	91
0	32409	10170.301581907248	92
0	32410	10171.138954457427	91
0	32413	10172.476641930985	90
0	32417	10173.288283623433	91
0	32418	10174.331845577779	90
0	32422	10175.716970581502	91
0	32423	10176.117556570071	90
0	32427	10176.319689924962	91
0	32430	10177.827311117175	90
0	32434	10178.468966531507	91
0	32436	10178.748078468996	92
0	32437	10179.625285032737	91
0	32440	10180.851695428575	90
0	32444	10181.626814101788	91
0	32446	10182.199837011432	92
0	32447	10182.392548863562	91
0	32451	10182.757267762708	92
0	32453	10183.352440773188	93
0	32454	10183.603023393983	92
0	32457	10184.876813930059	91
0	32461	10185.714494065759	92
0	32463	10186.329137659332	93
0	32464	10186.682681747312	92
0	32467	10188.268084283518	91
0	32471	10189.405051814815	92
0	32472	10189.826021307679	91
0	32476	10190.135453376609	92
0	32477	10191.476509037214	91
0	32481	10192.303533995568	92
0	32483	10192.865051470731	93
0	32484	10193.353415373499	92
0	32487	10194.732073373134	91
0	32490	10196.0552526904	90
0	32494	10197.111420153648	91
0	32496	10197.116002779425	92
0	32497	10197.972211604911	91
0	32501	10198.1949313583	92
0	32502	10199.401650935757	91
0	32506	10199.480556844976	92
0	32508	10200.407459776392	93
0	32509	10200.831806226607	92
0	32513	10200.920371214667	93
0	32514	10202.228152386259	92
0	32518	10202.327712643165	93
0	32519	10204.04767229573	92
0	32523	10204.081886887507	93
0	32524	10205.882148140456	92
0	32527	10207.623406850893	91
0	32531	10208.130276151515	92
0	32533	10209.008855241605	93
0	32534	10209.552288169015	92
0	32538	10209.879720079158	93
0	32539	10210.802493989069	92
0	32542	10212.476716290202	91
0	32546	10212.543296540844	92
0	32548	10213.109087648521	93
0	32549	10214.170323688511	92
0	32553	10215.001728351935	93
0	32554	10215.428882155728	92
0	32558	10216.359177800215	93
0	32559	10217.370353773583	92
0	32563	10218.851597092363	93
0	32564	10219.138518943984	92
0	32568	10219.455359947867	93
0	32569	10220.350077858355	92
0	32572	10221.662822779056	91
0	32576	10221.883546334684	92
0	32577	10222.877662860204	91
0	32580	10224.6247731555	90
0	32584	10226.184164181404	91
0	32585	10226.21107139976	90
0	32589	10227.731797260601	91
0	32590	10227.792979196992	90
0	32593	10229.404485160645	89
0	32597	10231.085031844592	90
0	32598	10231.112242833313	89
0	32602	10231.5357927578	90
0	32603	10232.393452516918	89
0	32606	10234.097692698588	88
0	32610	10235.562421331903	89
0	32611	10236.095153344212	88
0	32614	10237.897666341787	87
0	32618	10239.370953871218	88
0	32620	10239.375883037736	89
0	32621	10239.700140505818	88
0	32625	10239.875343429012	89
0	32626	10241.102614276459	88
0	32630	10241.478652492795	89
0	32632	10241.650473821978	90
0	32634	10242.04237274623	91
0	32635	10242.417137312119	90
0	32638	10244.172699313399	89
0	32642	10245.052288839353	90
0	32643	10245.942979930129	89
0	32647	10246.540346833752	90
0	32648	10247.66061040831	89
0	32651	10249.203483050291	88
0	32655	10249.359897647913	89
0	32657	10250.52033304608	90
0	32658	10251.101768975121	89
0	32661	10252.399480267962	88
0	32665	10253.314648181183	89
0	32666	10254.253595700649	88
0	32670	10254.472064279302	89
0	32672	10254.967991232297	90
0	32673	10255.967893476759	89
0	32676	10257.79042265897	88
0	32680	10257.919681667014	89
0	32681	10259.630270719503	88
0	32685	10260.049036910343	89
0	32686	10261.141738137205	88
0	32690	10262.120017334725	89
0	32691	10262.665149955426	88
0	32694	10264.032417750892	87
0	32698	10264.361430927745	88
0	32700	10264.786723057828	89
0	32701	10265.369975345184	88
0	32705	10265.741824254886	89
0	32706	10267.266889827487	88
0	32710	10268.176404323266	89
0	32711	10268.486765704838	88
0	32714	10270.104756901575	87
0	32717	10271.943272419249	86
0	32721	10272.059002873242	87
0	32723	10272.329100176814	88
0	32724	10273.928357221534	87
0	32727	10275.710328775061	86
0	32731	10275.786247430491	87
0	32733	10275.786775670284	88
0	32737	10275.853821432651	89
0	32739	10276.261186105274	90
0	32740	10277.084560610702	89
0	32744	10277.55861812523	90
0	32746	10277.693972032043	91
0	32748	10278.139931128689	92
0	32749	10278.494001842452	91
0	32752	10280.144433876103	90
0	32755	10281.963004711805	89
0	32758	10283.259207548736	88
0	32762	10283.724039563617	89
0	32764	10284.010051325467	90
0	32765	10285.253323093592	89
0	32769	10285.366502360612	90
0	32771	10285.456870016178	91
0	32773	10286.356741497853	92
0	32774	10286.538257354847	91
0	32778	10287.602961364934	92
0	32779	10288.182542404882	91
0	32783	10288.425736176145	92
0	32784	10289.963726319722	91
0	32787	10291.502189481235	90
0	32791	10291.52579826092	91
0	32793	10291.986172997029	92
0	32794	10293.383390294737	91
0	32797	10295.314620787999	90
0	32801	10296.495792504328	91
0	32803	10296.842618907024	92
0	32804	10297.186382239102	91
0	32808	10297.804479546665	92
0	32810	10298.625615363011	93
0	32811	10298.73185168521	92
0	32815	10300.149793747181	93
0	32816	10300.641357217147	92
0	32820	10301.750908442805	93
0	32821	10302.550142556964	92
0	32825	10303.292820404157	93
0	32827	10304.068428530617	94
0	32828	10304.490310751996	93
0	32832	10305.379051901479	94
0	32834	10306.131393185113	95
0	32835	10306.431638248428	94
0	32838	10307.670493015624	93
0	32842	10307.72530202946	94
0	32844	10308.136594334307	95
0	32846	10308.718141358964	96
0	32847	10309.60048378536	95
0	32851	10309.720480840848	96
0	32852	10311.487874609581	95
0	32856	10311.739229349556	96
0	32858	10312.53690464468	97
0	32859	10313.228699307306	96
0	32863	10314.172576149905	97
0	32864	10314.887569938017	96
0	32868	10315.397020521699	97
0	32869	10316.673135982988	96
0	32872	10318.630722510604	95
0	32875	10320.548652823617	94
0	32879	10320.665637424704	95
0	32883	10320.895149920421	96
0	32884	10321.964451754255	95
0	32888	10323.341131156551	96
0	32890	10323.357518184765	97
0	32891	10323.707111413939	96
0	32895	10324.604149402687	97
0	32896	10325.282074863812	96
0	32900	10325.670050815981	97
0	32901	10326.759796054078	96
0	32905	10327.115747321339	97
0	32906	10328.134702631062	96
0	32910	10328.517921808234	97
0	32911	10329.909208006015	96
0	32914	10331.704092865972	95
0	32918	10332.439661721546	96
0	32919	10333.362270164466	95
0	32923	10334.665261452957	96
0	32924	10334.716902204765	95
0	32928	10334.97038600995	96
0	32929	10336.52557084558	95
0	32932	10338.412836532085	94
0	32935	10340.08355464281	93
0	32939	10341.308083883532	94
0	32941	10341.849687278658	95
0	32942	10341.96014724893	94
0	32946	10342.576683278594	95
0	32947	10343.738257043971	94
0	32950	10345.268412730446	93
0	32954	10345.498063431695	94
0	32955	10346.649047329066	93
0	32959	10346.704119528753	94
0	32961	10346.882733018351	95
0	32963	10347.860079875398	96
0	32964	10348.392599510377	95
0	32968	10349.465957856575	96
0	32970	10349.471039774801	97
0	32971	10349.853099920017	96
0	32974	10351.373388162417	95
0	32978	10351.739581892654	96
0	32979	10353.071521072251	95
0	32983	10354.616422279304	96
0	32984	10354.675444467155	95
0	32987	10356.220467729656	94
0	32991	10356.78950942289	95
0	32992	10357.441008047922	94
0	32996	10357.917303974775	95
0	32997	10359.257939759804	94
0	33001	10359.549105168916	95
0	33002	10361.06254622077	94
0	33005	10362.453964277519	93
0	33009	10363.6590634575	94
0	33011	10363.996416943853	95
0	33012	10364.083090292079	94
0	33016	10365.162584176784	95
0	33017	10365.670524110062	94
0	33021	10365.728476818714	95
0	33022	10367.241732264472	94
0	33026	10368.316625873308	95
0	33027	10368.492106661921	94
0	33031	10369.657776784419	95
0	33032	10369.707627553654	94
0	33036	10369.819603505934	95
0	33037	10371.525394375038	94
0	33040	10372.999445286926	93
0	33044	10373.438291106543	94
0	33046	10373.463954367356	95
0	33047	10374.281402773943	94
0	33051	10374.411756363109	95
0	33052	10376.225929775808	94
0	33056	10377.06068100072	95
0	33057	10377.603565218646	94
0	33060	10379.502722115416	93
0	33063	10381.036721819799	92
0	33066	10382.496163956049	91
0	33069	10384.401343211318	90
0	33073	10384.554735157597	91
0	33074	10385.979767774949	90
0	33078	10386.446634659928	91
0	33080	10386.628553998383	92
0	33081	10387.610025658989	91
0	33085	10388.81157924239	92
0	33087	10389.283078616635	93
0	33089	10389.302412662739	94
0	33090	10389.483720485838	93
0	33094	10391.039499067658	94
0	33095	10391.445333960065	93
0	33099	10391.483670893343	94
0	33100	10392.722993492865	93
0	33104	10393.299227245571	94
0	33106	10394.3363181001	95
0	33107	10394.350222817407	94
0	33110	10395.61413181086	93
0	33113	10396.850524203451	92
0	33117	10396.938935739552	93
0	33119	10397.536795890055	94
0	33121	10398.114027742003	95
0	33122	10398.532561867842	94
0	33125	10400.13200032466	93
0	33129	10400.264575177264	94
0	33132	10401.5520193882	93
0	33136	10401.917395270477	94
0	33137	10402.93556887784	93
0	33141	10403.462954265699	94
0	33143	10404.058295380644	95
0	33144	10404.691971120024	94
0	33148	10405.542407943626	95
0	33149	10405.92660619651	94
0	33153	10407.20520928948	95
0	33154	10407.492232185761	94
0	33157	10409.175470310422	93
0	33161	10409.774110823013	94
0	33162	10410.403942622403	93
0	33166	10411.855132649462	94
0	33167	10412.215565640265	93
0	33171	10412.292926805949	94
0	33172	10413.605303713651	93
0	33176	10414.888756592352	94
0	33177	10415.033423324832	93
0	33181	10415.591113739513	94
0	33182	10416.50704901141	93
0	33186	10416.581170054163	94
0	33187	10417.949081093975	93
0	33190	10419.305131893576	92
0	33193	10421.139243322582	91
0	33197	10422.290597608368	92
0	33199	10422.512191613942	93
0	33200	10422.890816717193	92
0	33203	10424.443788429507	91
0	33207	10425.333323849224	92
0	33208	10425.999236493901	91
0	33212	10426.105308062872	92
0	33213	10427.425448085338	91
0	33217	10427.50231923131	92
0	33218	10428.678902956441	91
0	33221	10430.304640873678	90
0	33224	10432.105107784986	89
0	33227	10433.499378386668	88
0	33231	10433.539921234463	89
0	33233	10433.786100373064	90
0	33235	10433.85844460382	91
0	33236	10435.176747949018	90
0	33239	10436.724120645567	89
0	33243	10437.363851898367	90
0	33245	10438.092093966938	91
0	33246	10438.319752085923	90
0	33250	10438.432440780406	91
0	33251	10439.786862530342	90
0	33255	10440.566756412902	91
0	33256	10441.238497873365	90
0	33260	10441.709197545535	91
0	33261	10443.165943742327	90
0	33265	10444.281148825024	91
0	33266	10444.481012405611	90
0	33269	10445.839429827004	89
0	33273	10447.465650887705	90
0	33275	10447.472843044683	91
0	33276	10447.619405260279	90
0	33280	10447.659518367564	91
0	33281	10449.262461072735	90
0	33284	10450.66107645218	89
0	33288	10450.826342196085	90
0	33289	10452.316441288932	89
0	33293	10453.314634781812	90
0	33295	10453.454734023247	91
0	33296	10454.240608303032	90
0	33299	10455.550225919082	89
0	33303	10455.642684864703	90
0	33305	10456.344115517022	91
0	33306	10457.22081117273	90
0	33310	10457.496367495331	91
0	33311	10458.651770837947	90
0	33314	10460.258063967868	89
0	33318	10460.468679059155	90
0	33320	10460.578453339828	91
0	33321	10462.178497858501	90
0	33325	10462.696688824434	91
0	33327	10463.759673546484	92
0	33328	10463.891640127047	91
0	33332	10464.157751574291	92
0	33334	10464.196830631725	93
0	33335	10465.870813246041	92
0	33339	10466.083139888453	93
0	33340	10467.194037949077	92
0	33343	10468.40842794717	91
0	33347	10468.532236817509	92
0	33349	10469.827432849512	93
0	33350	10470.152447410456	92
0	33354	10471.633837123093	93
0	33355	10472.088443752348	92
0	33359	10472.828141781636	93
0	33360	10473.652883176289	92
0	33364	10474.622729646322	93
0	33365	10475.236890739358	92
0	33369	10475.520235374724	93
0	33371	10476.634022324682	94
0	33372	10477.102108450203	93
0	33376	10477.145490163539	94
0	33377	10478.61176863887	93
0	33381	10479.48146322259	94
0	33382	10480.083102887651	93
0	33386	10480.443964781419	94
0	33387	10481.77006185331	93
0	33390	10483.476043144023	92
0	33394	10483.92711480693	93
0	33395	10485.099914596384	92
0	33398	10486.546276515876	91
0	33402	10487.683790808832	92
0	33403	10487.911119503495	91
0	33407	10488.283437253879	92
0	33409	10488.297732809027	93
0	33410	10489.887266363543	92
0	33414	10490.434129878685	93
0	33416	10490.53235375436	94
0	33417	10491.855163329807	93
0	33421	10492.334279663009	94
0	33422	10493.174920376916	93
0	33425	10495.069993148897	92
0	33429	10495.154626862677	93
0	33430	10496.84738126431	92
0	33433	10498.843429994177	91
0	33437	10500.301386307945	92
0	33439	10500.323962100133	93
0	33441	10500.420493219347	94
0	33442	10500.697619115155	93
0	33446	10500.873249758963	94
0	33447	10502.27761468884	93
0	33450	10503.604412236963	92
0	33454	10503.717050302808	93
0	33456	10504.25087651559	94
0	33457	10505.399280069177	93
0	33461	10505.964110835432	94
0	33462	10506.886653807913	93
0	33465	10508.762256840584	92
0	33469	10508.781357188238	93
0	33470	10510.609129851465	92
0	33474	10512.091946300227	93
0	33475	10512.14989615154	92
0	33478	10513.508379538139	91
0	33482	10513.568117064951	92
0	33484	10514.215502609345	93
0	33486	10514.406885531278	94
0	33487	10515.387063088609	93
0	33491	10516.052975938326	94
0	33493	10516.568509802931	95
0	33494	10517.099960571682	94
0	33498	10518.288862801484	95
0	33500	10518.349128687666	96
0	33503	10518.687275453439	95
0	33507	10518.728586138218	96
0	33508	10519.908692680268	95
0	33512	10520.754875208986	96
0	33513	10521.620646123929	95
0	33516	10522.900790624661	94
0	33520	10523.388049712529	95
0	33522	10524.123128230862	96
0	33523	10524.336049425942	95
0	33529	10525.248733173661	96
0	33530	10526.062927022544	95
0	33534	10526.966672495321	96
0	33535	10527.897113020313	95
0	33539	10529.508468928023	96
0	33540	10529.739742003907	95
0	33543	10531.517201576163	94
0	33546	10532.987214875002	93
0	33549	10534.211588894729	92
0	33553	10534.602960215135	93
0	33555	10535.19386619512	94
0	33556	10535.731085518901	93
0	33560	10536.236559535044	94
0	33562	10537.258266160739	95
0	33563	10537.271902643856	94
0	33567	10538.442321557855	95
0	33568	10539.212596907247	94
0	33572	10540.200484091096	95
0	33574	10540.87758880375	96
0	33575	10540.978064020503	95
0	33579	10542.872803375998	96
0	33580	10542.972427036393	95
0	33583	10544.474707406539	94
0	33586	10546.29319875982	93
0	33590	10546.866874176612	94
0	33592	10547.005629538999	95
0	33593	10547.816662520509	94
0	33597	10547.957761896687	95
0	33599	10548.487978259116	96
0	33600	10549.036881528202	95
0	33604	10549.109778303579	96
0	33605	10550.788336857933	95
0	33610	10552.508912425082	94
0	33614	10553.307562642072	95
0	33616	10553.745729132879	96
0	33617	10553.840246624466	95
0	33621	10553.928037591878	96
0	33622	10555.322672780942	95
0	33627	10556.767433501001	94
0	33630	10558.010014028068	93
0	33634	10558.203245450706	94
0	33636	10558.638196251883	95
0	33638	10559.375366914262	96
0	33639	10559.496522315371	95
0	33643	10560.176731813135	96
0	33645	10560.20944969514	97
0	33646	10561.459450912628	96
0	33650	10561.538855932005	97
0	33651	10562.966279013794	96
0	33654	10564.210595492054	95
0	33658	10565.022477318533	96
0	33660	10565.241243586402	97
0	33661	10566.202622228828	96
0	33665	10566.595012837215	97
0	33666	10567.9591533519	96
0	33669	10569.32626957294	95
0	33672	10570.535238786008	94
0	33676	10570.582559637744	95
0	33678	10570.922307271786	96
0	33680	10571.285652706735	97
0	33682	10571.714084379539	98
0	33683	10572.249665205706	97
0	33687	10572.274900415661	98
0	33689	10572.431755085052	99
0	33691	10573.777581790194	100
0	33692	10573.997923456658	99
0	33696	10575.409429562539	100
0	33697	10575.555194864761	99
0	33700	10576.857689649764	98
0	33704	10576.913122106965	99
0	33706	10578.554651110524	100
0	33707	10578.738750416193	99
0	33711	10579.706685160202	100
0	33712	10580.179223261554	99
0	33715	10581.381775929559	98
0	33719	10581.848171488371	99
0	33720	10582.648777508143	98
0	33724	10583.250870869726	99
0	33725	10583.913541977632	98
0	33729	10584.308577925856	99
0	33731	10584.362042744855	100
0	33732	10585.17553488497	99
0	33736	10585.861364100007	100
0	33738	10586.076107220332	101
0	33740	10586.524217959904	102
0	33741	10586.61426542491	101
0	33744	10587.839918678778	100
0	33748	10588.885268013419	101
0	33749	10589.701656337793	100
0	33753	10589.812474771741	101
0	33754	10591.264971587586	100
0	33758	10592.095027833766	101
0	33759	10592.716795964318	100
0	33763	10592.811157933221	101
0	33765	10593.000796245779	102
0	33767	10593.769302720269	103
0	33768	10594.055593995715	102
0	33771	10595.360473553801	101
0	33774	10596.717468202638	100
0	33778	10596.831302354838	101
0	33779	10598.326376309025	100
0	33783	10598.363762006909	101
0	33785	10598.597211850584	102
0	33787	10599.075079656039	103
0	33788	10599.624050154875	102
0	33792	10600.621095182107	103
0	33793	10600.837220791693	102
0	33796	10602.615266632441	101
0	33800	10603.141371597052	102
0	33802	10603.785849385863	103
0	33803	10604.318750654127	102
0	33807	10605.306265674281	103
0	33808	10606.177984077263	102
0	33812	10606.519666198232	103
0	33813	10607.423142473738	102
0	33817	10608.445306173148	103
0	33818	10609.193424419838	102
0	33821	10610.467978347803	101
0	33825	10610.916021795422	102
0	33827	10611.519200062331	103
0	33828	10612.086697277764	102
0	33832	10613.34574172075	103
0	33833	10613.473709250951	102
0	33837	10613.586718287844	103
0	33839	10614.34936549532	104
0	33840	10615.059454072976	103
0	33844	10616.728749637969	104
0	33845	10617.05640696861	103
0	33849	10618.107683302129	104
0	33850	10618.575923368113	103
0	33853	10620.308229046466	102
0	33857	10620.439225722946	103
0	33859	10621.284413355491	104
0	33860	10621.60310317293	103
0	33863	10622.826299375633	102
0	33867	10622.862948942785	103
0	33868	10624.02662752528	102
0	33871	10625.350474669191	101
0	33875	10626.271144822734	102
0	33876	10626.631215449761	101
0	33879	10628.336273335818	100
0	33882	10629.926946517233	99
0	33886	10630.171603680019	100
0	33888	10631.568534370344	101
0	33889	10631.575917958621	100
0	33893	10631.699305937026	101
0	33894	10633.036970092695	100
0	33897	10634.860970265198	99
0	33900	10636.514472271841	98
0	33904	10637.680500955278	99
0	33905	10638.056407131035	98
0	33909	10639.775435351738	99
0	33910	10639.908802649904	98
0	33916	10640.749470220896	99
0	33917	10641.388647212241	98
0	33920	10643.148566956971	97
0	33923	10645.00409288105	96
0	33927	10645.506502513618	97
0	33929	10645.931216843993	98
0	33931	10646.041235154924	99
0	33933	10646.258181647858	100
0	33935	10646.564759068481	101
0	33936	10646.744889046218	100
0	33939	10648.627140852216	99
0	33944	10649.924854566309	98
0	33947	10651.837477675977	97
0	33951	10652.090322408164	98
0	33953	10652.396860590502	99
0	33954	10653.422508645768	98
0	33958	10653.613862915568	99
0	33960	10653.71864269175	100
0	33961	10654.650567815232	99
0	33965	10654.65264311926	100
0	33967	10654.818747915901	101
0	33968	10656.115310381318	100
0	33972	10656.448182965209	101
0	33973	10657.585760491493	100
0	33977	10658.231416627101	101
0	33978	10659.509137801791	100
0	33982	10659.983146535792	101
0	33983	10661.310443055967	100
0	33987	10661.635078727807	101
0	33988	10662.812840469146	100
0	33992	10662.973002240951	101
0	33993	10664.072528313437	100
0	33997	10665.558907961521	101
0	33998	10665.686292119475	100
0	34002	10665.816647029684	101
0	34004	10666.285525846995	102
0	34006	10666.288149209526	103
0	34007	10667.432083320582	102
0	34010	10668.752964264491	101
0	34014	10670.618435275428	102
0	34015	10670.734236576931	101
0	34019	10670.836224754249	102
0	34020	10672.612170698458	101
0	34024	10672.677384037092	102
0	34025	10674.382799609529	101
0	34029	10675.076819803063	102
0	34030	10675.832926705444	101
0	34034	10676.521342615994	102
0	34035	10677.165753207134	101
0	34039	10677.773926580746	102
0	34041	10678.909463677379	103
0	34042	10678.985353710839	102
0	34047	10680.433272477203	101
0	34051	10681.000457526005	102
0	34052	10681.79411800407	101
0	34055	10683.514411812426	100
0	34058	10685.256955294461	99
0	34061	10687.072134422661	98
0	34065	10687.560033513951	99
0	34066	10688.910666224883	98
0	34070	10690.084321163952	99
0	34071	10690.349427496047	98
0	34075	10690.77325261996	99
0	34077	10691.597212047618	100
0	34078	10691.962980266997	99
0	34081	10693.177958577835	98
0	34085	10693.245907663773	99
0	34087	10693.931906610675	100
0	34089	10694.018889663503	101
0	34090	10694.475211057962	100
0	34093	10696.131125388072	99
0	34097	10697.465372266946	100
0	34098	10698.120934969709	99
0	34102	10699.183871021694	100
0	34103	10699.457945250869	99
0	34106	10700.799349244461	98
0	34109	10702.010558718779	97
0	34113	10702.290564295054	98
0	34115	10702.363212750814	99
0	34117	10703.031002652085	100
0	34119	10703.125804864556	101
0	34120	10703.812629242205	100
0	34124	10704.341513690799	101
0	34126	10704.756430763726	102
0	34128	10705.011169358542	103
0	34130	10705.464685548995	104
0	34131	10705.538450216652	103
0	34134	10706.769565366172	102
0	34138	10707.826647181625	103
0	34139	10708.220711555854	102
0	34143	10708.246652278883	103
0	34144	10709.651735240743	102
0	34148	10709.986914768985	103
0	34149	10711.107279495299	102
0	34152	10712.609118792378	101
0	34158	10713.569933240808	102
0	34160	10713.82321918094	103
0	34162	10713.895900275551	104
0	34163	10714.181322713718	103
0	34166	10716.159345583394	102
0	34170	10716.85445273374	103
0	34171	10717.823301799372	102
0	34175	10717.913254334249	103
0	34177	10718.420230236683	104
0	34178	10719.800329714418	103
0	34182	10720.040726909165	104
0	34183	10721.1571696065	103
0	34188	10722.687850844265	102
0	34191	10723.913010227271	101
0	34195	10724.918766091195	102
0	34197	10725.240057231593	103
0	34199	10725.695347788293	104
0	34200	10725.811170697176	103
0	34203	10727.233238516525	102
0	34207	10728.095369725268	103
0	34209	10728.494910369293	104
0	34210	10728.842459954285	103
0	34214	10729.705934742664	104
0	34215	10730.619624455051	103
0	34219	10730.70851862802	104
0	34221	10731.760018501761	105
0	34222	10732.233020419592	104
0	34225	10733.480246527458	103
0	34229	10733.890740544844	104
0	34230	10734.716130618157	103
0	34234	10735.519403514603	104
0	34236	10735.985968790786	105
0	34238	10736.170577981398	106
0	34240	10736.362839399025	107
0	34241	10736.668134595605	106
0	34245	10737.256972603709	107
0	34247	10737.816689418281	108
0	34248	10737.881517324375	107
0	34252	10738.483538419656	108
0	34254	10738.561843369942	109
0	34256	10739.025703196892	110
0	34257	10739.239144049177	109
0	34261	10739.558482389512	110
0	34262	10740.523672454955	109
0	34265	10741.777774265559	108
0	34269	10741.984592681771	109
0	34271	10742.911155109174	110
0	34272	10743.77597773295	109
0	34276	10744.49757423939	110
0	34277	10745.336194153094	109
0	34283	10745.983280575404	110
0	34285	10746.918602159855	111
0	34286	10746.942685085126	110
0	34289	10748.169938423262	109
0	34293	10748.392273224604	110
0	34296	10750.079850164392	109
0	34300	10750.438395879828	110
0	34302	10750.735521559453	111
0	34303	10751.685542520286	110
0	34307	10752.253284950133	111
0	34310	10753.34672295727	110
0	34313	10755.244809338787	109
0	34317	10755.640916599384	110
0	34319	10756.187354513777	111
0	34320	10756.971373632328	110
0	34324	10757.587198727706	111
0	34325	10758.445529897475	110
0	34329	10758.731097300209	111
0	34331	10759.03273354795	112
0	34333	10759.063791110453	113
0	34334	10759.737233039142	112
0	34338	10760.114690452138	113
0	34340	10760.36617818827	114
0	34341	10761.154804383555	113
0	34345	10761.890093696894	114
0	34346	10762.75959528085	113
0	34349	10764.555773656593	112
0	34353	10765.136008743209	113
0	34355	10765.549022983909	114
0	34356	10765.890511541964	113
0	34360	10766.260810700562	114
0	34361	10767.125835317896	113
0	34365	10768.014592066254	114
0	34366	10768.669026854598	113
0	34369	10770.075907247664	112
0	34373	10770.709473094777	113
0	34375	10770.842175855524	114
0	34376	10772.061173394287	113
0	34380	10772.587292056723	114
0	34381	10773.981434352102	113
0	34384	10775.213524261268	112
0	34387	10776.842918747442	111
0	34392	10778.630129257741	110
0	34396	10779.195270180565	111
0	34397	10780.205484954978	110
0	34400	10781.790733148682	109
0	34404	10782.579435682376	110
0	34406	10783.425103036058	111
0	34407	10783.76751512118	110
0	34411	10784.079875051412	111
0	34413	10784.358304086716	112
0	34415	10784.867640055832	113
0	34416	10785.072587835568	112
0	34420	10785.429780410114	113
0	34422	10786.168916011438	114
0	34423	10786.481480197015	113
0	34427	10786.801132800875	114
0	34429	10787.589205722308	115
0	34430	10787.95618090384	114
0	34434	10788.422726207988	115
0	34435	10789.24923347697	114
0	34439	10789.44650630223	115
0	34440	10791.112341042947	114
0	34444	10791.363598769976	115
0	34445	10792.510888965767	114
0	34449	10792.55914062762	115
0	34450	10793.910554326665	114
0	34454	10793.937037516742	115
0	34455	10795.719867939283	114
0	34458	10797.433144485359	113
0	34462	10798.403281052739	114
0	34463	10799.268026902121	113
0	34467	10800.352600693904	114
0	34468	10801.123760908064	113
0	34471	10803.096556270089	112
0	34475	10803.748228728682	113
0	34476	10804.449682189491	112
0	34480	10806.279133107444	113
0	34481	10806.381153638255	112
0	34484	10807.620661008325	111
0	34487	10809.289471763153	110
0	34491	10809.604452680205	111
0	34492	10810.845323631693	110
0	34495	10812.108878030222	109
0	34499	10812.301316692588	110
0	34501	10813.106076244154	111
0	34502	10813.620048701171	110
0	34506	10814.230197122152	111
0	34507	10815.169316896577	110
0	34510	10816.434154402245	109
0	34513	10818.026229919832	108
0	34517	10818.211179710373	109
0	34519	10818.673649336773	110
0	34521	10819.330298994334	111
0	34522	10819.390166470375	110
0	34526	10820.156287083038	111
0	34527	10820.947704138946	110
0	34531	10822.593212717114	111
0	34532	10822.596252299998	110
0	34535	10824.459446043301	109
0	34539	10824.745470159229	110
0	34540	10826.106463615376	109
0	34544	10826.226889605801	110
0	34545	10827.451809783246	109
0	34548	10829.401008922945	108
0	34552	10829.80022986796	109
0	34553	10830.921686761792	108
0	34556	10832.241995755363	107
0	34559	10833.690761996213	106
0	34563	10834.300012460355	107
0	34565	10835.000498834706	108
0	34566	10835.032976055111	107
0	34570	10836.13068304235	108
0	34571	10836.768342439051	107
0	34575	10837.413797380549	108
0	34576	10838.19796441939	107
0	34580	10838.718865682012	108
0	34581	10839.898720544356	107
0	34585	10840.708120181022	108
0	34587	10841.042832172453	109
0	34588	10841.242156293954	108
0	34592	10841.646354771328	109
0	34594	10841.751342957988	110
0	34595	10842.451571209322	109
0	34599	10842.937017293962	110
0	34600	10844.355040753971	109
0	34604	10845.913354321691	110
0	34605	10846.063136411424	109
0	34609	10847.083597998868	110
0	34610	10847.561414771493	109
0	34614	10847.920220652891	110
0	34616	10849.024697830803	111
0	34617	10849.101970410127	110
0	34621	10849.234729878458	111
0	34623	10849.778561184038	112
0	34625	10850.113972940744	113
0	34626	10850.681281838719	112
0	34629	10852.607397204045	111
0	34633	10852.751834706316	112
0	34635	10853.149798211945	113
0	34636	10854.163500489447	112
0	34640	10855.157580476316	113
0	34641	10855.742172776129	112
0	34645	10856.42992713524	113
0	34646	10856.998312572729	112
0	34650	10858.549959126125	113
0	34651	10858.717442207564	112
0	34654	10860.528835431267	111
0	34657	10862.010866246898	110
0	34661	10862.930959940492	111
0	34662	10863.914907132428	110
0	34666	10864.024662865217	111
0	34668	10864.955685843409	112
0	34669	10865.123560465466	111
0	34673	10866.070450099192	112
0	34675	10866.411858307897	113
0	34676	10866.701860195178	112
0	34679	10868.532538502443	111
0	34683	10868.57862089705	112
0	34685	10869.608149933624	113
0	34686	10869.959492218088	112
0	34690	10870.439051463899	113
0	34691	10871.86552780025	112
0	34695	10872.801273215654	113
0	34697	10872.815846707316	114
0	34698	10873.093506141159	113
0	34702	10874.343140626778	114
0	34704	10874.407874808977	115
0	34706	10874.644913583186	116
0	34707	10875.066815685074	115
0	34711	10875.41986715254	116
0	34712	10876.40917409208	115
0	34716	10877.075463502732	116
0	34718	10877.527894357609	117
0	34719	10877.75980626956	116
0	34722	10878.984999531846	115
0	34725	10880.570609601739	114
0	34729	10881.213290395124	115
0	34731	10881.263861120471	116
0	34732	10881.802455566417	115
0	34736	10882.483746466468	116
0	34737	10883.615785759467	115
0	34740	10885.053276008892	114
0	34743	10886.473610746267	113
0	34747	10887.259663264885	114
0	34748	10887.836454731564	113
0	34752	10888.670451614956	114
0	34753	10889.536794990639	113
0	34757	10889.807832587917	114
0	34758	10891.254442361335	113
0	34761	10892.586331356096	112
0	34765	10892.655196406457	113
0	34767	10893.297764849004	114
0	34768	10894.404487022909	113
0	34772	10894.701887238446	114
0	34774	10895.151121511615	115
0	34775	10896.073249985615	114
0	34779	10896.242043951118	115
0	34781	10896.688165278533	116
0	34782	10897.806320076959	115
0	34786	10899.205300235614	116
0	34787	10899.501654750259	115
0	34791	10900.574853806811	116
0	34792	10900.987780931183	115
0	34796	10901.848090672731	116
0	34797	10902.378813118451	115
0	34800	10903.938897530512	114
0	34804	10904.188372617301	115
0	34805	10905.805790872091	114
0	34809	10906.412770510481	115
0	34810	10907.392141491325	114
0	34813	10908.827586800383	113
0	34817	10909.816075405975	114
0	34818	10910.432419778371	113
0	34821	10911.952447671221	112
0	34825	10912.742580348317	113
0	34826	10913.802196437084	112
0	34830	10913.958582839199	113
0	34831	10915.091210617089	112
0	34834	10916.388675236666	111
0	34838	10916.872362565072	112
0	34839	10918.368696050496	111
0	34843	10919.365742672798	112
0	34844	10920.158038759754	111
0	34848	10921.127029902833	112
0	34849	10921.372045996004	111
0	34852	10923.345659642072	110
0	34856	10924.253543116228	111
0	34857	10925.124847022594	110
0	34860	10926.496568752044	109
0	34863	10928.259199107588	108
0	34867	10928.465198645198	109
0	34870	10929.776024905369	108
0	34873	10931.376409368739	107
0	34877	10933.033385567822	108
0	34878	10933.106742175259	107
0	34882	10933.839722503758	108
0	34884	10934.471861687345	109
0	34885	10934.934492699951	108
0	34889	10935.256718037574	109
0	34891	10935.62508744644	110
0	34893	10935.782316969112	111
0	34895	10936.089843545904	112
0	34896	10936.769793138057	111
0	34900	10937.805077208594	112
0	34901	10938.262276856378	111
0	34905	10938.887899663183	112
0	34906	10939.897422763855	111
0	34910	10940.449625358608	112
0	34911	10941.388695347273	111
0	34915	10942.328977028267	112
0	34916	10943.077920423785	111
0	34919	10944.605542649479	110
0	34923	10945.105547520691	111
0	34924	10946.275642664322	110
0	34928	10947.134015287883	111
0	34929	10948.205852006712	110
0	34933	10948.210067172714	111
0	34935	10948.495385298616	112
0	34936	10950.075047421419	111
0	34940	10950.403849154937	112
0	34942	10950.780017593467	113
0	34943	10951.340741799549	112
0	34946	10952.655724393167	111
0	34950	10952.929918598775	112
0	34951	10954.42302608002	111
0	34955	10954.474086369145	112
0	34957	10954.574319478443	113
0	34958	10956.194840216413	112
0	34962	10956.275586946625	113
0	34963	10957.579486970752	112
0	34966	10958.879221980981	111
0	34969	10960.254060394279	110
0	34973	10960.392583022205	111
0	34975	10960.545618839515	112
0	34976	10961.478505923934	111
0	34980	10962.001209694063	112
0	34981	10962.795602808296	111
0	34985	10962.949456296069	112
0	34986	10964.304059195667	111
0	34989	10966.086564196981	110
0	34992	10967.86849221751	109
0	34996	10968.589331150578	110
0	34998	10968.875945048954	111
0	35000	10969.79198437297	112
0	35001	10969.86006120216	111
0	35004	10971.06097231876	110
0	35008	10971.337978171488	111
0	35009	10972.46173270937	110
0	35013	10972.537085317532	111
0	35015	10972.724330624214	112
0	35016	10974.096572889164	111
0	35020	10974.129603364323	112
0	35022	10974.575628070407	113
0	35023	10975.935724670775	112
0	35027	10976.210331047907	113
0	35028	10977.756888106987	112
0	35032	10978.528650375598	113
0	35033	10979.037741636634	112
0	35036	10980.243176261112	111
0	35040	10980.639576954925	112
0	35042	10981.001108773849	113
0	35044	10981.193096859788	114
0	35045	10981.579944202639	113
0	35048	10983.235802364871	112
0	35052	10983.500015562428	113
0	35054	10983.887177155902	114
0	35056	10983.979925633603	115
0	35057	10984.558030121364	114
0	35060	10986.004117495343	113
0	35064	10986.255074803815	114
0	35066	10986.675522398965	115
0	35067	10987.759206357375	114
0	35070	10989.313766845651	113
0	35073	10990.815119656324	112
0	35077	10991.9432091576	113
0	35078	10992.035135127008	112
0	35082	10992.151727295855	113
0	35084	10992.251505152755	114
0	35085	10993.657670265213	113
0	35089	10995.091899924757	114
0	35090	10995.311194362641	113
0	35093	10996.655610096791	112
0	35097	10997.644478884001	113
0	35098	10998.013628983089	112
0	35101	10999.32881407939	111
0	35105	10999.852897562783	112
0	35106	11000.913408338615	111
0	35110	11002.412288184026	112
0	35111	11002.553123766334	111
0	35115	11003.035602129305	112
0	35117	11003.060561972305	113
0	35119	11003.610132895272	114
0	35121	11004.281951291701	115
0	35122	11004.545751125888	114
0	35126	11005.283217017181	115
0	35127	11006.179238489606	114
0	35131	11006.544013103354	115
0	35132	11007.940585346483	114
0	35136	11009.595689768517	115
0	35137	11009.932099953816	114
0	35140	11011.268283459508	113
0	35144	11011.832037405963	114
0	35146	11011.965252790417	115
0	35147	11012.89078891609	114
0	35151	11013.633007424479	115
0	35152	11014.83999401793	114
0	35155	11016.088817368412	113
0	35159	11016.909311095162	114
0	35161	11018.026184971144	115
0	35162	11018.071274399908	114
0	35166	11018.373635856123	115
0	35168	11018.96231487226	116
0	35169	11019.518058328854	115
0	35174	11021.214018360304	114
0	35178	11021.417389920947	115
0	35179	11022.717143251339	114
0	35183	11023.186402620783	115
0	35184	11024.472494461725	114
0	35187	11025.88935171772	113
0	35190	11027.732077373157	112
0	35193	11029.155782311002	111
0	35196	11030.404944472911	110
0	35200	11030.408192295458	111
0	35204	11031.257333685798	112
0	35205	11032.038290343957	111
0	35209	11033.218615125083	112
0	35210	11033.439975205401	111
0	35214	11034.641208644098	112
0	35216	11034.862357116001	113
0	35217	11035.042905761825	112
0	35221	11035.185858594427	113
0	35224	11036.984397329914	112
0	35228	11037.999393843313	113
0	35230	11038.016217507047	114
0	35231	11038.959915084171	113
0	35234	11040.704137341644	112
0	35238	11040.788740183862	113
0	35240	11041.827567631913	114
0	35241	11042.309580025415	113
0	35246	11043.557568839344	112
0	35250	11043.651006773965	113
0	35252	11044.764794452738	114
0	35253	11045.177427196096	113
0	35256	11046.710258674029	112
0	35260	11047.727752514001	113
0	35261	11048.03113357291	112
0	35265	11048.348139342571	113
0	35267	11048.480423777029	114
0	35268	11049.366885000434	113
0	35272	11050.320369067126	114
0	35274	11050.708807146555	115
0	35275	11051.311889948663	114
0	35279	11052.365633363533	115
0	35281	11053.170585864549	116
0	35283	11053.194998432038	117
0	35284	11053.308484385316	116
0	35289	11054.534232005444	115
0	35292	11056.11962253802	114
0	35296	11056.681595230411	115
0	35297	11058.034286189047	114
0	35301	11058.804065815507	115
0	35302	11059.946216192437	114
0	35306	11060.19043827286	115
0	35308	11060.383061213071	116
0	35309	11061.504405597938	115
0	35312	11063.217914032159	114
0	35316	11063.780487130665	115
0	35317	11064.743318471094	114
0	35323	11066.562583761569	115
0	35324	11066.599550395054	114
0	35327	11067.958516045255	113
0	35330	11069.292008261909	112
0	35334	11069.385696747063	113
0	35336	11070.355803866414	114
0	35337	11070.703239619513	113
0	35341	11070.766629324821	114
0	35343	11070.896420197761	115
0	35344	11072.560100196828	114
0	35348	11072.723317949613	115
0	35350	11072.964778377556	116
0	35352	11073.828209015206	117
0	35353	11074.499827799541	116
0	35357	11074.695496139538	117
0	35358	11076.474449522388	116
0	35362	11076.627688488168	117
0	35363	11078.469509074804	116
0	35366	11079.824177159709	115
0	35370	11080.083314427184	116
0	35371	11081.477028192361	115
0	35375	11082.720960387601	116
0	35376	11082.946550017749	115
0	35380	11083.201251271362	116
0	35381	11084.713620206495	115
0	35384	11086.235151561131	114
0	35388	11086.406549153193	115
0	35389	11087.518061752399	114
0	35393	11087.710611116125	115
0	35396	11088.859771932071	114
0	35400	11089.455765946901	115
0	35402	11090.037278185495	116
0	35403	11090.633766189931	115
0	35407	11090.849735640506	116
0	35408	11092.164083092256	115
0	35412	11092.432919408608	116
0	35413	11094.02942674548	115
0	35416	11095.664421499675	114
0	35419	11097.143677192708	113
0	35422	11098.459518166599	112
0	35425	11100.412981517208	111
0	35429	11101.992646493683	112
0	35430	11102.198750105095	111
0	35434	11103.292302306219	112
0	35435	11104.041645055232	111
0	35439	11104.609249098675	112
0	35441	11105.062030023058	113
0	35443	11105.378185390281	114
0	35444	11106.019426387516	113
0	35448	11107.11178621092	114
0	35450	11107.133797442048	115
0	35452	11107.233835706618	116
0	35453	11107.330208738116	115
0	35457	11108.399066163573	116
0	35458	11108.570010500369	115
0	35462	11109.913378191157	116
0	35463	11110.408342560162	115
0	35467	11111.415756770969	116
0	35468	11112.003927694042	115
0	35472	11113.536277643095	116
0	35473	11113.75663819049	115
0	35477	11114.810580624089	116
0	35478	11115.050626847488	115
0	35482	11115.972340578024	116
0	35483	11116.610134565239	115
0	35487	11117.421917351282	116
0	35489	11117.503339280918	117
0	35490	11118.321709487555	116
0	35494	11119.173565909992	117
0	35495	11119.574746060712	116
0	35499	11119.805448576418	117
0	35500	11121.452165809614	116
0	35504	11121.721193131027	117
0	35506	11122.77219272507	118
0	35507	11122.798162369398	117
0	35511	11123.005529561146	118
0	35512	11124.477790833978	117
0	35515	11126.289142736016	116
0	35518	11127.721035276322	115
0	35521	11129.50981818807	114
0	35525	11129.858300784187	115
0	35527	11130.736040492128	116
0	35528	11130.797773566811	115
0	35532	11131.561204305306	116
0	35534	11131.617630955149	117
0	35536	11131.802684452681	118
0	35537	11132.415745197578	117
0	35540	11133.942682133211	116
0	35543	11135.481832708014	115
0	35547	11136.393213862288	116
0	35548	11137.101411953723	115
0	35552	11138.406093974083	116
0	35553	11138.785966200536	115
0	35557	11140.25384260344	116
0	35559	11140.39209327624	117
0	35560	11140.544854219412	116
0	35563	11142.105267579635	115
0	35567	11142.544179703188	116
0	35569	11143.13710319433	117
0	35570	11143.589621198331	116
0	35574	11143.905135640842	117
0	35576	11144.31849767672	118
0	35577	11145.417427336765	117
0	35581	11146.523843855538	118
0	35582	11147.387421355364	117
0	35586	11148.046694377132	118
0	35587	11149.27086151239	117
0	35591	11149.850937026498	118
0	35593	11150.089535006	119
0	35594	11151.190675067683	118
0	35599	11153.010861678203	117
0	35603	11154.036153407165	118
0	35604	11154.45689423081	117
0	35607	11156.210023591262	116
0	35611	11157.311001599209	117
0	35613	11157.357537020807	118
0	35615	11157.734373014269	119
0	35616	11157.881728060324	118
0	35619	11159.211783670414	117
0	35623	11160.609474736852	118
0	35624	11160.787762369182	117
0	35627	11162.544009103034	116
0	35631	11163.525642991196	117
0	35633	11163.949150761661	118
0	35634	11164.182997606289	117
0	35638	11165.767361259263	118
0	35640	11165.786114367568	119
0	35641	11165.963020614315	118
0	35645	11166.182982455086	119
0	35646	11167.619842447866	118
0	35649	11169.526960334149	117
0	35652	11170.960955429044	116
0	35655	11172.360520982337	115
0	35659	11173.644005351006	116
0	35660	11173.653359868903	115
0	35663	11175.269250444476	114
0	35667	11175.939362327415	115
0	35669	11176.153864485115	116
0	35671	11176.943352069878	117
0	35672	11177.019026847523	116
0	35676	11177.776300868886	117
0	35677	11178.355604673516	116
0	35683	11179.929467516499	117
0	35684	11180.03752910715	116
0	35688	11181.020456109958	117
0	35689	11181.25619851273	116
0	35692	11182.527136740801	115
0	35696	11184.229097793773	116
0	35697	11184.43821994212	115
0	35700	11185.990457537179	114
0	35703	11187.524717751299	113
0	35707	11187.538817631441	114
0	35709	11189.037410520096	115
0	35711	11189.139284114553	116
0	35713	11189.306212196838	117
0	35714	11189.431391765331	116
0	35718	11189.760184245196	117
0	35719	11190.909677230348	116
0	35722	11192.567696356927	115
0	35726	11193.155400579178	116
0	35728	11193.721859770129	117
0	35729	11193.883069084925	116
0	35735	11194.834247604814	117
0	35738	11195.529590122369	116
0	35742	11195.835560847009	117
0	35744	11196.342218231875	118
0	35745	11197.285248944317	117
0	35748	11199.269247333487	116
0	35752	11199.352266924321	117
0	35754	11200.405170835658	118
0	35755	11200.73580778983	117
0	35759	11201.251684399463	118
0	35761	11202.320061793331	119
0	35762	11202.664603201268	118
0	35766	11202.723638688569	119
0	35768	11203.054912047198	120
0	35769	11204.196431007577	119
0	35773	11204.502794507199	120
0	35774	11205.410462357631	119
0	35777	11207.009036249636	118
0	35780	11208.314663836329	117
0	35784	11208.373792296679	118
0	35786	11209.216220164592	119
0	35787	11209.914446480914	118
0	35790	11211.371407808146	117
0	35793	11213.121312519691	116
0	35797	11213.645115819276	117
0	35799	11214.207993023519	118
0	35800	11214.942122367553	117
0	35804	11215.576225660761	118
0	35805	11216.937871259979	117
0	35808	11218.761534639976	116
0	35811	11220.527634680613	115
0	35816	11222.145110951706	114
0	35820	11222.157828018907	115
0	35822	11223.029823952658	116
0	35823	11223.881610271118	115
0	35827	11224.386166841777	116
0	35828	11225.653926262602	115
0	35834	11227.137921980878	116
0	35835	11227.425747710995	115
0	35839	11228.463854724557	116
0	35840	11229.124176020704	115
0	35843	11230.580905668594	114
0	35847	11231.780096853399	115
0	35849	11232.298792258222	116
0	35850	11232.48597107061	115
0	35854	11232.788235627255	116
0	35855	11234.350024340644	115
0	35859	11235.085299673388	116
0	35860	11236.130585474677	115
0	35865	11237.621849548973	114
0	35869	11238.455716870128	115
0	35871	11238.775199022724	116
0	35873	11239.333559033258	117
0	35874	11239.586312136583	116
0	35877	11241.246932643436	115
0	35881	11241.269645952057	116
0	35883	11241.533706749505	117
0	35884	11243.151738807716	116
0	35888	11243.852060344693	117
0	35890	11244.135370140469	118
0	35891	11244.922687830188	117
0	35895	11246.115155252605	118
0	35896	11246.2542818641	117
0	35900	11246.857241120308	118
0	35902	11247.262909768362	119
0	35903	11247.843398978905	118
0	35906	11249.734515344882	117
0	35910	11250.589019727544	118
0	35911	11251.349272756623	117
0	35915	11252.915858656279	118
0	35916	11253.215880357446	117
0	35919	11254.893414658652	116
0	35923	11255.442061775145	117
0	35925	11256.726520455822	118
0	35926	11256.756676706457	117
0	35930	11257.469019584475	118
0	35931	11258.356861440809	117
0	35935	11259.527389543075	118
0	35937	11259.536194208262	119
0	35939	11259.841843360333	120
0	35940	11259.912804808998	119
0	35943	11261.684433616483	118
0	35947	11261.831916857396	119
0	35948	11263.547417621286	118
0	35952	11263.756976800758	119
0	35953	11264.878236438492	118
0	35957	11265.506518697229	119
0	35958	11266.137115611853	118
0	35961	11267.839160776669	117
0	35964	11269.443299229788	116
0	35968	11269.780776083326	117
0	35970	11270.611584825678	118
0	35972	11270.887071268704	119
0	35973	11270.982814536775	118
0	35977	11271.646887288546	119
0	35979	11271.86441940965	120
0	35980	11272.442715847465	119
0	35984	11273.334449406633	120
0	35986	11273.74483350791	121
0	35987	11273.813912291611	120
0	35990	11275.35692713053	119
0	35994	11275.929717314091	120
0	35996	11276.166509851819	121
0	35998	11276.380057349443	122
0	36000	11276.422604583872	123
0	36001	11277.108690801422	122
0	36005	11277.83104934803	123
0	36006	11279.007026421065	122
0	36010	11279.299044519752	123
0	36011	11280.88687368908	122
0	36014	11282.263375598537	121
0	36017	11284.21805798986	120
0	36021	11285.791419172376	121
0	36023	11285.791852668441	122
0	36024	11285.982910211543	121
0	36028	11286.419784681902	122
0	36029	11287.729712025607	121
0	36033	11288.691387008381	122
0	36036	11289.445375576774	121
0	36040	11291.06030355368	122
0	36041	11291.409474423686	121
0	36045	11292.513194148233	122
0	36046	11292.741733040446	121
0	36050	11293.491842022448	122
0	36052	11293.503365803178	123
0	36053	11294.441513967858	122
0	36057	11294.687647114586	123
0	36059	11295.750233599494	124
0	36060	11295.829259415874	123
0	36063	11297.504146520393	122
0	36067	11298.654591177505	123
0	36068	11299.21444438898	122
0	36072	11300.325034015955	123
0	36073	11300.948102244707	122
0	36077	11301.004216362651	123
0	36079	11301.429832356227	124
0	36080	11302.762105298015	123
0	36084	11303.334877530453	124
0	36085	11304.559928778159	123
0	36089	11305.206487422321	124
0	36090	11306.392071489217	123
0	36095	11307.827265205952	122
0	36098	11309.038925399418	121
0	36101	11310.438031104366	120
0	36105	11311.048389578243	121
0	36106	11312.33976796751	120
0	36109	11313.776691048193	119
0	36112	11315.623854256767	118
0	36115	11317.038682991239	117
0	36119	11317.065144566694	118
0	36121	11317.375649179828	119
0	36122	11318.750016426268	118
0	36126	11319.201487012797	119
0	36127	11320.346236693273	118
0	36130	11322.315507760803	117
0	36133	11324.146490365053	116
0	36137	11324.658658476378	117
0	36139	11325.062785695986	118
0	36140	11325.6717616094	117
0	36143	11326.959736698093	116
0	36147	11327.059207632351	117
0	36149	11327.570606458236	118
0	36151	11328.270615980573	119
0	36152	11328.327339352826	118
0	36156	11328.537503234156	119
0	36159	11329.531574593829	118
0	36162	11331.497532209912	117
0	36166	11332.311164437552	118
0	36168	11333.034324392634	119
0	36170	11333.092635620079	120
0	36172	11333.173615973955	121
0	36173	11333.218908844301	120
0	36177	11334.186187456649	121
0	36178	11334.421251177201	120
0	36182	11334.673951886024	121
0	36184	11335.272491732194	122
0	36186	11335.605661117332	123
0	36187	11336.261183262216	122
0	36191	11337.53921975759	123
0	36192	11337.967060274975	122
0	36197	11339.536991517217	121
0	36201	11340.162135002396	122
0	36202	11341.416378838168	121
0	36205	11343.324509465852	120
0	36209	11343.326370276384	121
0	36210	11345.020932449558	120
0	36213	11346.328671434493	119
0	36216	11348.276946963155	118
0	36220	11349.140474925185	119
0	36221	11349.502380255395	118
0	36225	11350.375048482173	119
0	36226	11350.918272812263	118
0	36230	11352.4012811978	119
0	36231	11352.617488704407	118
0	36235	11354.0616905201	119
0	36237	11354.432896120699	120
0	36238	11354.591766572343	119
0	36242	11355.882230735789	120
0	36243	11356.451624835441	119
0	36247	11357.041884699243	120
0	36248	11357.861542071374	119
0	36252	11359.347686957461	120
0	36253	11359.521348423669	119
0	36257	11359.792917316091	120
0	36258	11361.379485071795	119
0	36262	11362.326753830823	120
0	36264	11362.557279076801	121
0	36265	11363.230238942401	120
0	36268	11365.148608525441	119
0	36272	11366.126100525635	120
0	36273	11366.604337371298	119
0	36277	11366.604731846216	120
0	36279	11367.729484027848	121
0	36280	11368.416013183416	120
0	36283	11370.118062809826	119
0	36286	11372.037665783399	118
0	36290	11372.953442173164	119
0	36292	11373.247644646369	120
0	36293	11373.421991849103	119
0	36297	11373.838658287243	120
0	36298	11374.970405113482	119
0	36301	11376.228198029258	118
0	36305	11377.069106947531	119
0	36306	11377.953897506342	118
0	36309	11379.666821767547	117
0	36314	11381.212818735809	116
0	36317	11382.592561862589	115
0	36321	11383.182587866821	116
0	36323	11383.861051992957	117
0	36325	11384.243833678518	118
0	36326	11384.33684661013	117
0	36330	11385.14286521063	118
0	36331	11386.212720453524	117
0	36335	11386.290419333847	118
0	36337	11386.72158920959	119
0	36338	11387.506073123188	118
0	36341	11389.384347780206	117
0	36345	11389.524844901828	118
0	36347	11389.550040900112	119
0	36348	11390.613733119675	118
0	36352	11390.974789974538	119
0	36353	11391.939619739139	118
0	36356	11393.231319483341	117
0	36360	11393.774191588316	118
0	36362	11394.023344425818	119
0	36363	11394.884552952991	118
0	36367	11394.974117388046	119
0	36368	11396.591510339239	118
0	36372	11397.75888232644	119
0	36373	11397.925849121594	118
0	36377	11398.748402880358	119
0	36378	11399.752966702887	118
0	36382	11400.763298373485	119
0	36384	11400.955145737145	120
0	36385	11401.446967140743	119
0	36389	11401.675680750473	120
0	36390	11402.711217744993	119
0	36394	11403.810099791814	120
0	36395	11403.930279436493	119
0	36398	11405.396097680526	118
0	36402	11405.79905039182	119
0	36404	11406.21511093869	120
0	36406	11406.980408590988	121
0	36407	11407.373420023704	120
0	36411	11407.718948639343	121
0	36412	11408.576334791975	120
0	36416	11409.769577054429	121
0	36417	11410.466524603749	120
0	36421	11410.978842496213	121
0	36422	11411.889619638371	120
0	36425	11413.480659829612	119
0	36429	11413.785726226169	120
0	36430	11415.368066474955	119
0	36435	11416.745635408323	118
0	36439	11417.049955803222	119
0	36440	11418.008565648619	118
0	36444	11418.510945859158	119
0	36446	11418.937238449388	120
0	36447	11419.490974969204	119
0	36450	11421.274989943739	118
0	36454	11421.757489637624	119
0	36456	11421.957372752007	120
0	36457	11422.475438065615	119
0	36460	11423.8780689446	118
0	36464	11424.37863117614	119
0	36465	11425.229248094347	118
0	36469	11425.818885097163	119
0	36471	11426.120042503657	120
0	36472	11426.482349958245	119
0	36475	11428.302421489332	118
0	36479	11428.840847481765	119
0	36480	11430.017466048684	118
0	36484	11431.446457465154	119
0	36485	11431.765574946787	118
0	36489	11432.142244548334	119
0	36491	11432.422149634377	120
0	36494	11433.043038955118	119
0	36497	11434.297772966857	118
0	36501	11435.226804103916	119
0	36503	11435.256970009258	120
0	36505	11435.851192238017	121
0	36507	11436.052753964903	122
0	36508	11436.068603427681	121
0	36512	11437.282246918	122
0	36513	11437.73477821217	121
0	36516	11439.145704444471	120
0	36520	11439.612732201959	121
0	36522	11441.018386435924	122
0	36524	11441.021785458389	123
0	36525	11441.068286095347	122
0	36528	11442.545680752743	121
0	36532	11443.228964604627	122
0	36533	11444.445906262632	121
0	36537	11445.54119732378	122
0	36538	11446.217036493096	121
0	36541	11447.430805758733	120
0	36545	11447.972771507188	121
0	36546	11449.147155733566	120
0	36549	11450.552789010081	119
0	36553	11450.831623204006	120
0	36555	11451.767292273611	121
0	36556	11452.032765112418	120
0	36560	11452.282675953135	121
0	36561	11453.970970260511	120
0	36564	11455.844205569635	119
0	36567	11457.24034696498	118
0	36571	11457.29657248633	119
0	36573	11457.639335890021	120
0	36574	11458.976544554132	119
0	36577	11460.791822416681	118
0	36581	11460.952925037505	119
0	36582	11462.667545864145	118
0	36586	11463.153185319618	119
0	36587	11464.258016674007	118
0	36590	11466.112119707438	117
0	36594	11466.233250114165	118
0	36595	11467.680696602325	117
0	36598	11469.404288461964	116
0	36601	11471.15797931959	115
0	36605	11471.864977813899	116
0	36606	11472.392162040594	115
0	36609	11473.686365568238	114
0	36612	11475.331039854112	113
0	36616	11476.098677928768	114
0	36618	11476.719618432116	115
0	36619	11476.959660756747	114
0	36622	11478.892751034508	113
0	36626	11479.403803665354	114
0	36628	11479.693859689228	115
0	36629	11480.423579570065	114
0	36632	11482.169467360499	113
0	36636	11482.550795915228	114
0	36637	11483.825446536737	113
0	36641	11484.359783489851	114
0	36643	11484.967366530034	115
0	36645	11484.992551198894	116
0	36646	11485.350400339785	115
0	36650	11486.843794068382	116
0	36651	11487.293063184033	115
0	36655	11487.807966015129	116
0	36657	11488.514423143278	117
0	36658	11489.222860909599	116
0	36662	11490.344215469859	117
0	36663	11490.759111058313	116
0	36667	11491.007750901347	117
0	36668	11492.371046309892	116
0	36671	11493.581977150936	115
0	36674	11495.358170415994	114
0	36678	11496.730212198556	115
0	36679	11497.275770490777	114
0	36683	11498.144961928837	115
0	36684	11499.107614975769	114
0	36687	11501.060212898415	113
0	36691	11501.174571666392	114
0	36692	11502.389416003015	113
0	36696	11503.806319275574	114
0	36697	11503.893593987052	113
0	36701	11503.947998556189	114
0	36702	11505.461450395335	113
0	36706	11506.298698266716	114
0	36708	11507.310371098226	115
0	36709	11507.326274803814	114
0	36713	11507.67071433196	115
0	36714	11508.796170664553	114
0	36718	11509.815122343568	115
0	36719	11510.050117131297	114
0	36723	11511.259938914309	115
0	36724	11511.531478098009	114
0	36727	11513.322407573249	113
0	36730	11514.796526102509	112
0	36734	11514.847473064258	113
0	36736	11514.928380348435	114
0	36740	11515.84538881376	115
0	36741	11516.087093053918	114
0	36745	11516.152256794843	115
0	36746	11517.478531161111	114
0	36750	11518.357051565283	115
0	36751	11519.408815300439	114
0	36755	11520.020666770508	115
0	36756	11520.768243954864	114
0	36759	11522.034152532343	113
0	36763	11522.561945041527	114
0	36765	11523.759247243195	115
0	36766	11524.012124777001	114
0	36770	11524.224854858371	115
0	36771	11525.984240701397	114
0	36775	11527.157174509246	115
0	36776	11527.362658140224	114
0	36780	11528.022782910968	115
0	36782	11528.175597630893	116
0	36783	11529.330321847994	115
0	36787	11529.983797258504	116
0	36788	11530.815527585868	115
0	36792	11530.861491659924	116
0	36794	11530.934650816211	117
0	36796	11531.385356846778	118
0	36797	11532.736800656628	117
0	36800	11534.487197870735	116
0	36804	11535.46852494303	117
0	36805	11536.113754936095	116
0	36809	11536.410086749053	117
0	36811	11536.518979754254	118
0	36812	11537.446152466509	117
0	36816	11538.431393432646	118
0	36817	11538.710541212718	117
0	36821	11540.426467650472	118
0	36822	11540.56123463546	117
0	36826	11541.678045961684	118
0	36828	11541.772092497625	119
0	36829	11542.081302991669	118
0	36832	11543.707155931156	117
0	36836	11544.045855077324	118
0	36837	11545.328272308197	117
0	36841	11545.388334807746	118
0	36843	11546.08005902362	119
0	36844	11546.543056764986	118
0	36848	11547.159083484582	119
0	36849	11547.780540106605	118
0	36853	11547.999213215796	119
0	36854	11549.408823822598	118
0	36858	11549.633150265584	119
0	36860	11550.27583606071	120
0	36861	11550.874020534354	119
0	36864	11552.758412013176	118
0	36867	11554.487721406828	117
0	36870	11556.146740374129	116
0	36873	11557.359989898253	115
0	36877	11557.418843592229	116
0	36879	11557.893484417771	117
0	36881	11558.21520355967	118
0	36882	11558.583155975464	117
0	36886	11558.664617296005	118
0	36888	11559.44705761248	119
0	36889	11559.90399906763	118
0	36893	11560.703140475596	119
0	36894	11561.634148039642	118
0	36898	11562.078546294104	119
0	36900	11562.905511278295	120
0	36901	11563.259000165175	119
0	36905	11563.343976852064	120
0	36906	11564.582916166048	119
0	36910	11566.013466387948	120
0	36911	11566.055942078467	119
0	36914	11567.879001826021	118
0	36917	11569.40443707348	117
0	36921	11569.772038014211	118
0	36922	11570.933517700594	117
0	36925	11572.588682528559	116
0	36929	11573.404127434204	117
0	36930	11574.091415502477	116
0	36933	11575.973771128777	115
0	36936	11577.406756486345	114
0	36940	11577.535491896848	115
0	36942	11577.609277384334	116
0	36944	11577.925395099893	117
0	36945	11578.823439965743	116
0	36949	11579.051191661103	117
0	36951	11579.055022080138	118
0	36952	11580.317780253264	117
0	36956	11580.594356928475	118
0	36957	11581.573370856206	117
0	36961	11581.649825979233	118
0	36962	11583.128441218632	117
0	36965	11584.385520454655	116
0	36970	11586.002058207216	115
0	36974	11586.931028029112	116
0	36976	11587.262260669845	117
0	36977	11587.725381884137	116
0	36981	11588.55424464019	117
0	36983	11589.143516003512	118
0	36984	11589.153554745549	117
0	36988	11590.642852354698	118
0	36989	11590.957269737282	117
0	36992	11592.177802088269	116
0	36995	11593.775726865762	115
0	36999	11594.900991943932	116
0	37000	11595.613619112567	115
0	37004	11596.384889249116	116
0	37005	11596.902821777918	115
0	37009	11597.14317339038	116
0	37011	11597.86886788936	117
0	37012	11598.25097499729	116
0	37016	11599.379115118922	117
0	37017	11599.833576856338	116
0	37021	11600.681808828505	117
0	37023	11600.869040293196	118
0	37025	11601.176555440486	119
0	37026	11601.751298995846	118
0	37029	11603.564510215231	117
0	37033	11604.053888816824	118
0	37034	11605.545990721852	117
0	37038	11605.941553165709	118
0	37039	11607.265780959621	117
0	37043	11608.506330843851	118
0	37044	11609.255714676686	117
0	37047	11610.808707936637	116
0	37051	11610.908533749746	117
0	37052	11612.153717459895	116
0	37055	11613.417758277215	115
0	37059	11613.524541946132	116
0	37061	11614.763769934295	117
0	37062	11615.216679776616	116
0	37066	11615.473934423826	117
0	37067	11616.701710293039	116
0	37071	11616.846197585107	117
0	37072	11618.401404852203	116
0	37076	11619.683485629656	117
0	37077	11620.195662080652	116
0	37081	11621.024976082403	117
0	37082	11621.414281962967	116
0	37086	11621.635900354982	117
0	37088	11622.204897114553	118
0	37089	11623.253364434993	117
0	37093	11625.010389484204	118
0	37094	11625.091803153759	117
0	37098	11626.267435810993	118
0	37099	11626.609982282078	117
0	37103	11626.751662877317	118
0	37104	11628.354225423342	117
0	37108	11628.361055282767	118
0	37112	11628.862622299608	119
0	37113	11629.757324700026	118
0	37117	11630.304010810015	119
0	37118	11631.172145104377	118
0	37123	11632.624674960195	117
0	37127	11633.111995532524	118
0	37128	11634.365696393668	117
0	37132	11634.818920926711	118
0	37134	11634.836365720587	119
0	37135	11635.787163420364	118
0	37138	11637.303283441223	117
0	37141	11638.596990490302	116
0	37145	11639.096916222994	117
0	37146	11640.421874692447	116
0	37150	11640.955334583829	117
0	37152	11640.976813530081	118
0	37154	11641.241850950381	119
0	37155	11641.810097770921	118
0	37158	11643.027298115163	117
0	37162	11643.410143102142	118
0	37164	11644.214255734572	119
0	37165	11644.836727709106	118
0	37168	11646.817219162329	117
0	37172	11647.549685531729	118
0	37174	11647.691318996874	119
0	37175	11648.034216504886	118
0	37179	11648.07299130897	119
0	37180	11649.451250131025	118
0	37183	11651.448460367664	117
0	37187	11651.689925351353	118
0	37189	11651.795315974691	119
0	37191	11652.800631916848	120
0	37192	11652.876014954007	119
0	37195	11654.22880972509	118
0	37199	11654.812653047545	119
0	37200	11655.797636003389	118
0	37203	11657.083570961065	117
0	37207	11657.149628583113	118
0	37208	11658.340379812538	117
0	37212	11658.880174939833	118
0	37214	11659.506824880668	119
0	37216	11659.588428715343	120
0	37217	11659.748043649427	119
0	37220	11661.484390447258	118
0	37224	11661.68404037864	119
0	37226	11661.883212988612	120
0	37227	11662.999798939905	119
0	37230	11664.347043688751	118
0	37234	11665.320473781627	119
0	37235	11665.855429967276	118
0	37238	11667.156811410531	117
0	37242	11667.502678002266	118
0	37243	11668.880100169375	117
0	37246	11670.146245964772	116
0	37250	11671.040040404476	117
0	37251	11672.083928487419	116
0	37255	11672.995872744554	117
0	37256	11673.547337298996	116
0	37260	11674.766635136603	117
0	37261	11675.079345263138	116
0	37264	11676.93918427822	115
0	37268	11677.009304192994	116
0	37270	11677.940016816354	117
0	37271	11678.805947894201	116
0	37275	11679.851569486894	117
0	37276	11680.215197093755	116
0	37279	11681.701500035979	115
0	37283	11682.117316528727	116
0	37284	11683.473352560371	115
0	37288	11683.886779540627	116
0	37289	11685.395515578769	115
0	37293	11686.584717908069	116
0	37295	11686.631045800682	117
0	37296	11686.780164277151	116
0	37299	11688.724662588693	115
0	37303	11688.950706220394	116
0	37306	11690.30258833614	115
0	37309	11692.193654629745	114
0	37313	11693.088864933273	115
0	37314	11693.736940336757	114
0	37318	11694.574064031017	115
0	37319	11695.564918848657	114
0	37322	11697.36768659369	113
0	37325	11698.72456528169	112
0	37329	11698.871783312736	113
0	37330	11700.057164748357	112
0	37334	11700.090320747046	113
0	37335	11701.889908703574	112
0	37339	11702.77708483268	113
0	37340	11703.492719165579	112
0	37343	11704.729900350579	111
0	37347	11705.465244769225	112
0	37348	11706.688189956517	111
0	37351	11708.099337974534	110
0	37355	11708.912138050797	111
0	37357	11709.37929114511	112
0	37358	11709.972241005272	111
0	37362	11710.604175325628	112
0	37363	11711.703611567028	111
0	37366	11713.453650253236	110
0	37370	11714.558631953269	111
0	37371	11714.992272528976	110
0	37374	11716.756162770808	109
0	37378	11717.19477651548	110
0	37380	11717.896578319912	111
0	37381	11718.190708390966	110
0	37384	11719.582978181511	109
0	37388	11719.796280592809	110
0	37389	11721.498003161296	109
0	37393	11722.468462822313	110
0	37394	11722.927314114727	109
0	37398	11723.930457503787	110
0	37400	11724.68447894204	111
0	37401	11724.827576173067	110
0	37405	11725.482873329291	111
0	37406	11726.342155302472	110
0	37410	11726.947693887525	111
0	37411	11727.630788257315	110
0	37415	11728.094649760832	111
0	37416	11729.342014516859	110
0	37420	11729.560806189424	111
0	37421	11731.068984234116	110
0	37424	11732.907994415953	109
0	37428	11732.992559928784	110
0	37429	11734.582960953533	109
0	37433	11734.644005881223	110
0	37434	11736.121920737594	109
0	37437	11737.328143246255	108
0	37441	11737.51018482679	109
0	37442	11738.886079996794	108
0	37446	11739.755175232839	109
0	37447	11740.408450167782	108
0	37450	11741.754472169436	107
0	37454	11742.073671390012	108
0	37456	11742.474741271343	109
0	37458	11743.013175001877	110
0	37459	11743.11979456485	109
0	37463	11743.447988214656	110
0	37465	11744.380621699654	111
0	37466	11744.925764023668	110
0	37471	11746.722033827907	109
0	37475	11747.501667681781	110
0	37476	11748.600335429764	109
0	37480	11748.75204388004	110
0	37481	11750.073406467742	109
0	37485	11751.016613704499	110
0	37486	11751.907772110185	109
0	37490	11752.113206938185	110
0	37491	11753.19323156864	109
0	37495	11753.374512277298	110
0	37496	11755.176816591961	109
0	37499	11756.45716180109	108
0	37503	11757.391412108348	109
0	37504	11758.401939938744	108
0	37508	11758.555339273069	109
0	37509	11759.749815318515	108
0	37513	11760.017917939163	109
0	37514	11761.228492256408	108
0	37518	11762.362785408883	109
0	37519	11762.608438086664	108
0	37523	11763.095306043843	109
0	37524	11764.169733869811	108
0	37530	11765.212588482924	109
0	37531	11765.955901079406	108
0	37535	11766.157896767067	109
0	37536	11767.447707127747	108
0	37540	11768.822836607053	109
0	37541	11769.370442561214	108
0	37545	11769.377364624582	109
0	37546	11771.144079608438	108
0	37550	11771.571410591842	109
0	37551	11772.883126584036	108
0	37555	11773.525102828711	109
0	37556	11774.695987491278	108
0	37560	11775.205149574681	109
0	37561	11776.0571938818	108
0	37565	11776.308884281733	109
0	37566	11777.936712134597	108
0	37570	11779.171223166411	109
0	37571	11779.357615941172	108
0	37574	11780.702864609068	107
0	37578	11780.706368131506	108
0	37580	11781.561588444027	109
0	37581	11782.172089154986	108
0	37584	11783.594591353801	107
0	37588	11783.980702718007	108
0	37590	11784.097160336247	109
0	37591	11785.200296192397	108
0	37595	11785.743502339292	109
0	37596	11786.475760805201	108
0	37600	11786.791669583562	109
0	37601	11788.083630665731	108
0	37605	11788.263935454004	109
0	37607	11788.333548696649	110
0	37608	11789.91243083008	109
0	37612	11790.166369559989	110
0	37613	11791.451822768118	109
0	37617	11791.842605679644	110
0	37618	11793.206908345375	109
0	37622	11793.34703441671	110
0	37624	11794.516562146074	111
0	37625	11795.082440257039	110
0	37629	11795.736072141634	111
0	37630	11796.722604477745	110
0	37634	11797.551483385286	111
0	37635	11797.932875086334	110
0	37639	11798.026432602898	111
0	37640	11799.441217414443	110
0	37644	11799.589227987518	111
0	37646	11800.808226262007	112
0	37647	11801.160189934601	111
0	37651	11801.708160309148	112
0	37653	11802.120556747879	113
0	37654	11802.50670583785	112
0	37657	11804.192271810364	111
0	37661	11804.485176805821	112
0	37663	11804.634631925666	113
0	37664	11805.843945584785	112
0	37667	11807.344953408431	111
0	37671	11808.076104122495	112
0	37672	11808.595144227672	111
0	37675	11810.457245715674	110
0	37679	11811.346297651939	111
0	37680	11812.23407588337	110
0	37684	11813.308605772665	111
0	37685	11813.762413815376	110
0	37689	11814.554633499032	111
0	37691	11814.677790164154	112
0	37692	11815.165418851901	111
0	37696	11816.159270030541	112
0	37697	11816.516227212515	111
0	37701	11817.117165193935	112
0	37703	11817.825453665393	113
0	37704	11818.370521144536	112
0	37708	11819.30384785017	113
0	37710	11819.423018337522	114
0	37711	11819.602771956627	113
0	37714	11820.896891484749	112
0	37718	11822.06538347996	113
0	37719	11822.77401376829	112
0	37723	11824.320961999435	113
0	37725	11824.48527257653	114
0	37726	11824.694351764549	113
0	37730	11825.920944769382	114
0	37731	11826.086698901993	113
0	37735	11827.331357783542	114
0	37736	11827.688268092614	113
0	37740	11829.060555336651	114
0	37742	11829.387454398424	115
0	37743	11829.625333243762	114
0	37747	11830.253983096199	115
0	37748	11831.432178015788	114
0	37752	11831.687458807201	115
0	37753	11833.024058342506	114
0	37757	11834.544648705089	115
0	37758	11834.970828202707	114
0	37762	11836.372779897455	115
0	37763	11836.668072805335	114
0	37766	11837.998061601785	113
0	37772	11838.533231177346	114
0	37773	11839.615610860442	113
0	37776	11840.96448616643	112
0	37780	11840.976347244373	113
0	37782	11841.940822297884	114
0	37783	11842.591627784972	113
0	37786	11843.853135319021	112
0	37792	11844.469866731416	113
0	37793	11845.397361099873	112
0	37797	11846.736675397538	113
0	37798	11846.857756983269	112
0	37802	11846.983083066176	113
0	37804	11847.071567138055	114
0	37806	11847.970326033334	115
0	37808	11848.004354153792	116
0	37810	11848.15922331034	117
0	37811	11848.375484921936	116
0	37815	11849.225524419187	117
0	37816	11850.031207237173	116
0	37822	11851.007329283209	117
0	37823	11851.875502407145	116
0	37827	11852.659734889552	117
0	37828	11853.570438024368	116
0	37831	11854.778030822951	115
0	37835	11855.806148540633	116
0	37836	11856.267358649116	115
0	37840	11856.287571808002	116
0	37842	11857.341423540786	117
0	37843	11857.890088431876	116
0	37849	11858.223816551056	117
0	37850	11859.850073629957	116
0	37854	11859.992889023701	117
0	37855	11861.696878953059	116
0	37859	11862.68949660876	117
0	37860	11863.632181741078	116
0	37863	11865.185208292831	115
0	37867	11865.203288270738	116
0	37868	11866.730209046196	115
0	37872	11867.780044689452	116
0	37873	11868.053369998153	115
0	37876	11869.360730978813	114
0	37880	11869.690589295601	115
0	37882	11869.753798402989	116
0	37884	11870.741233461202	117
0	37885	11870.930109359849	116
0	37891	11871.031815615551	117
0	37893	11871.539775758383	118
0	37894	11872.763007270138	117
0	37897	11874.506006279367	116
0	37901	11874.676389949532	117
0	37902	11875.93607921988	116
0	37906	11876.789908949268	117
0	37907	11877.34274691079	116
0	37911	11877.640580734856	117
0	37912	11879.031737858208	116
0	37915	11880.59849890914	115
0	37919	11881.722488689832	116
0	37921	11881.760154271683	117
0	37922	11882.356409388559	116
0	37926	11882.708435165642	117
0	37928	11883.108887820532	118
0	37929	11883.645439025538	117
0	37932	11885.186232957395	116
0	37936	11885.919905387648	117
0	37938	11887.024757968595	118
0	37939	11887.026388808118	117
0	37943	11887.593684437274	118
0	37945	11888.153272995681	119
0	37946	11888.628638381475	118
0	37949	11890.279791217075	117
0	37953	11892.062881436829	118
0	37954	11892.220046785624	117
0	37958	11892.512883210109	118
0	37959	11893.48048321955	117
0	37962	11895.370167249032	116
0	37966	11895.848583976429	117
0	37967	11896.954902714268	116
0	37971	11897.52114123388	117
0	37972	11898.179100767114	116
0	37975	11899.579214993455	115
0	37978	11901.009366734848	114
0	37982	11901.042800390232	115
0	37984	11902.065468664542	116
0	37985	11902.765042574294	115
0	37988	11904.268939622082	114
0	37991	11905.620049822666	113
0	37994	11907.265960655324	112
0	37998	11907.889377534228	113
0	38000	11907.970976121589	114
0	38001	11908.613438471928	113
0	38005	11908.749264404248	114
0	38006	11910.386424324065	113
0	38010	11910.592816200805	114
0	38011	11911.969967469349	113
0	38014	11913.336770677715	112
0	38020	11914.414817124613	113
0	38021	11914.999200877509	112
0	38024	11916.28537748359	111
0	38028	11917.348364392608	112
0	38030	11917.872259516605	113
0	38032	11917.918309891543	114
0	38033	11917.926057615465	113
0	38037	11918.104149236416	114
0	38039	11919.088424997448	115
0	38040	11919.392150264008	114
0	38043	11921.379906555226	113
0	38047	11921.899783780223	114
0	38048	11922.600420715807	113
0	38051	11924.326471233143	112
0	38055	11924.504524455148	113
0	38057	11924.776649485917	114
0	38059	11924.90875445553	115
0	38061	11925.142709705131	116
0	38062	11925.954967993645	115
0	38066	11926.036927417398	116
0	38067	11927.42719804026	115
0	38071	11927.746324229907	116
0	38072	11929.237544501906	115
0	38075	11931.194616064017	114
0	38079	11931.791605123798	115
0	38081	11932.330364530766	116
0	38083	11932.785931789248	117
0	38084	11933.003576022719	116
0	38087	11934.441803651822	115
0	38091	11935.712041388699	116
0	38094	11935.975907285285	115
0	38097	11937.748684631993	114
0	38100	11939.330014881265	113
0	38103	11941.285251656321	112
0	38107	11941.414785322551	113
0	38108	11942.672251866345	112
0	38111	11944.205419795361	111
0	38115	11944.429507779984	112
0	38116	11945.891378787865	111
0	38120	11946.603661315234	112
0	38121	11947.203765623977	111
0	38124	11948.836794908119	110
0	38127	11950.605093160046	109
0	38130	11952.44262705311	108
0	38133	11954.12544739764	107
0	38136	11956.001923933586	106
0	38140	11956.423851667055	107
0	38141	11957.88454169683	106
0	38144	11959.514864094517	105
0	38148	11959.558177288002	106
0	38150	11961.197201254656	107
0	38151	11961.23361944422	106
0	38155	11961.254597760185	107
0	38157	11961.51704916926	108
0	38159	11961.836196529489	109
0	38161	11962.340610424663	110
0	38162	11962.779038971438	109
0	38166	11964.217863687327	110
0	38167	11964.492313161082	109
0	38171	11965.584150490825	110
0	38172	11966.435634110271	109
0	38176	11967.992624215061	110
0	38177	11968.00605300568	109
0	38181	11968.779503306402	110
0	38183	11968.925586475015	111
0	38184	11969.266148552633	110
0	38188	11969.29538629402	111
0	38190	11969.484261444562	112
0	38191	11970.780744462795	111
0	38195	11970.873587581036	112
0	38197	11971.066729637281	113
0	38199	11971.892342336977	114
0	38200	11972.708199265375	113
0	38204	11973.195403099679	114
0	38205	11974.503574404082	113
0	38209	11974.885855601787	114
0	38211	11975.550591881441	115
0	38213	11976.089740952674	116
0	38215	11976.111747376159	117
0	38216	11976.175952491871	116
0	38220	11976.283984280472	117
0	38222	11976.482459093953	118
0	38223	11977.562631943039	117
0	38227	11977.719408229461	118
0	38229	11978.190405499043	119
0	38230	11979.198369008637	118
0	38234	11980.043894274812	119
0	38235	11980.566559493876	118
0	38238	11982.437042065485	117
0	38242	11982.551171137144	118
0	38244	11982.873863858807	119
0	38245	11984.345464404634	118
0	38248	11985.850037865116	117
0	38252	11986.367573988862	118
0	38253	11987.740155526585	117
0	38256	11989.353003098405	116
0	38260	11991.15986947256	117
0	38261	11991.294830202087	116
0	38265	11992.277027492696	117
0	38267	11992.818341240771	118
0	38268	11992.998640894107	117
0	38272	11993.477238321172	118
0	38273	11994.364076307937	117
0	38276	11996.295353927798	116
0	38280	11996.831655924899	117
0	38281	11997.946078803911	116
0	38284	11999.171808424926	115
0	38287	12000.990002150609	114
0	38291	12001.094073810411	115
0	38293	12002.060527533395	116
0	38295	12002.434134370988	117
0	38296	12002.633908344953	116
0	38300	12003.333063673856	117
0	38301	12003.998925827591	116
0	38305	12004.456346400646	117
0	38307	12004.508765909691	118
0	38309	12004.555413237	119
0	38310	12005.908476369789	118
0	38314	12006.52059999263	119
0	38315	12007.55671253722	118
0	38319	12007.762534539851	119
0	38320	12009.060842197536	118
0	38324	12009.157056286821	119
0	38325	12010.942252185716	118
0	38329	12012.3242291029	119
[...]
6	34391	10777.687045766314	318
6	34869	10929.105818282557	319
6	35173	11021.104320256413	320
6	35202	11030.603002206091	321
6	35223	11036.032827894946	322
6	35245	11042.569129116624	323
6	35288	11054.356080291768	324
6	35321	11065.190116153457	325
6	35395	11088.160749012313	326
6	35598	11153.005269880573	327
6	35681	11178.687721514277	328
6	35733	11194.314517778468	329
6	35737	11195.062265799436	330
6	35815	11221.25651185729	331
6	35832	11225.656299000875	332
6	35864	11237.59238391332	333
6	36035	11288.886944699082	334
6	36094	11307.067367462413	335
6	36158	11329.307588141926	336
6	36196	11338.758858426509	337
6	36313	11380.975645539166	338
6	36434	11416.639254078412	339
6	36493	11432.443303986137	340
6	36738	11515.062358228256	341
6	36969	11584.962450471414	342
6	37110	11628.601882125099	343
6	37122	11632.257145733523	344
6	37305	11689.630447687829	345
6	37470	11745.176290982495	346
6	37528	11764.573539943671	347
6	37770	11838.394408838507	348
6	37790	11844.11524566986	349
6	37820	11850.386247420429	350
6	37847	11857.959621280691	351
6	37889	11870.97237666266	352
6	38018	11914.367833551168	353
6	38093	11935.966913888984	354
6	38514	12066.602754584579	355
6	38616	12097.174391952153	356
6	39022	12223.252747198528	357
6	39215	12286.664946089888	358
6	39284	12307.865318542637	359
6	39331	12324.208485180831	360
6	39459	12358.752102773198	361
6	39473	12360.907838815319	362
6	39475	12362.52091070954	363
6	39574	12399.131399629854	364
6	39665	12427.248251280145	365
6	39669	12428.237671372749	366
6	39692	12436.998379361216	367
6	39709	12441.280878773446	368
6	39814	12472.90263907336	369
6	39826	12476.572245600642	370
6	39831	12477.380239563003	371
6	39850	12483.537403399594	372
6	39868	12490.46453827298	373
6	39937	12510.191025483145	374
6	40049	12543.052644885362	375
6	40071	12549.802806839496	376
6	40154	12575.317718494974	377
6	40208	12593.570656340088	378
6	40216	12597.419561807021	379
6	40354	12637.7344466785	380
6	40369	12643.533589875882	381
6	40508	12691.176446754291	382
6	40677	12744.366334458052	383
6	40766	12772.054235256994	384
6	40802	12784.194812713753	385
6	41289	12942.046036415377	386
6	41452	12995.395946713657	387
6	41476	13003.455535320973	388
6	41525	13017.576794592532	389
6	41553	13026.612701297977	390
6	41689	13072.140123503525	391
6	41760	13093.003869261376	392
6	42083	13200.682356388952	393
6	42136	13215.927407748531	394
6	42168	13224.938961279194	395
6	42382	13298.827008341061	396
6	42453	13322.479819580718	397
6	42530	13345.659478938303	398
6	42615	13372.845141128324	399
6	42668	13389.99527061353	400
6	42973	13483.739975276181	401
6	43014	13497.795297747465	402
6	43190	13549.603146329569	403
6	43220	13558.029556019572	404
6	43795	13746.889135426613	405
6	43852	13765.327434560931	406
6	43916	13786.342372658951	407
6	43958	13798.378993473082	408
6	44034	13821.134766385034	409
6	44098	13840.139147331044	410
6	44103	13840.795994021647	411
6	44123	13847.664112111606	412
6	44497	13965.217615602128	413
6	44533	13977.109620926914	414
6	44636	14010.884780417027	415
6	44708	14036.514938981402	416
6	44949	14109.103117848093	417
6	45137	14169.001130381408	418
6	45229	14194.049676444183	419
6	45265	14207.483543586089	420
6	45362	14237.13081755483	421
6	45379	14241.717048375489	422
6	45564	14302.178959029321	423
6	45688	14341.968790485935	424
6	45854	14396.637307829604	425
6	45884	14402.439295812345	426
6	45950	14421.500072108249	427
6	45965	14425.655252793034	428
6	46027	14445.916379379585	429
6	46089	14465.706947357645	430
6	46140	14481.219501041364	431
6	46243	14513.201250022791	432
6	46331	14542.089007746209	433
6	46358	14548.109934386864	434
6	46550	14609.48164594747	435
6	46803	14689.22995787123	436
6	46892	14720.332104546209	437
6	46956	14738.541770730771	438
6	47177	14805.828719059274	439
6	47256	14830.038392740157	440
6	47258	14830.633819062463	441
6	47307	14844.965909156907	442
6	47322	14848.538809710729	443
6	47324	14849.2495943599	444
6	47377	14866.333499149363	445
6	47515	14909.031760154345	446
6	47899	15023.907361902787	447
6	48208	15124.23458697574	448
6	48502	15215.645414452334	449
6	48639	15257.433771253402	450
6	48641	15258.529382956155	451
6	48670	15265.546294026111	452
6	48835	15320.686168396598	453
6	48878	15331.317068186205	454
6	48887	15333.209951987614	455
6	48926	15344.698737046435	456
6	48982	15361.167400610571	457
6	49188	15428.059698482372	458
6	49342	15473.219945231468	459
6	49375	15480.798080557804	460
6	49447	15503.071752499494	461
6	49602	15552.321827950855	462
6	49692	15577.555851443286	463
6	49699	15579.513636564674	464
6	49712	15584.765528718584	465
6	49792	15606.844848761077	466
6	50104	15711.350697863525	467
6	50111	15713.363276406779	468
6	50191	15737.361520408656	469
6	50255	15755.890885718379	470
6	50352	15786.176986122349	471
6	50419	15807.729365063851	472
6	50519	15839.657309238876	473
6	50595	15862.748158286402	474
6	50747	15916.464647689879	475
6	50914	15970.329346251162	476
6	51099	16028.821727490504	477
6	51107	16029.645703414884	478
6	51195	16058.970946189209	479
6	51515	16159.861511437474	480
6	51540	16166.763035076216	481
6	51574	16177.957863487133	482
6	51900	16283.375533029292	483
6	51971	16306.531800775671	484
6	52039	16324.987592012345	485
6	52336	16423.589512570055	486
6	52551	16491.949017881225	487
6	52617	16514.319684030286	488
6	52770	16561.676423856887	489
6	52861	16590.16198907467	490
6	53030	16641.722723945168	491
6	53035	16643.081156940807	492
6	53178	16687.986198860938	493
6	53263	16712.227941206658	494
6	53303	16725.563842129994	495
6	53321	16733.852166432542	496
6	53358	16745.549555711517	497
6	53406	16759.422543174342	498
6	53417	16761.371647960844	499
6	53454	16773.521510498386	500
6	53564	16809.538459934269	501
6	53620	16829.251603979134	502
6	53628	16833.339967558348	503
6	53668	16843.062940036019	504
6	53723	16856.309363266981	505
6	53760	16866.815919272819	506
6	53837	16892.407634129013	507
6	53866	16900.347983422232	508
6	53923	16919.092933966149	509
6	53969	16931.461627180399	510
6	54039	16954.832749601586	511
6	54047	16957.269125912875	512
6	54311	17035.479168151705	513
6	54702	17156.196793605889	514
6	54755	17173.646764453044	515
6	54763	17175.865910095141	516
6	54796	17185.967902640977	517
6	54962	17237.376938676193	518
6	55047	17265.11048467383	519
6	55054	17267.191355054497	520
6	55464	17396.387985637657	521
6	55591	17433.216389086319	522
6	55744	17482.111713260309	523
6	55930	17542.542974297496	524
6	56012	17565.631514395537	525
6	56326	17665.421386623677	526
6	56332	17666.412125852889	527
6	56470	17709.819536413248	528
6	56591	17748.490017510476	529
6	56596	17750.173536213842	530
6	56659	17767.845176801878	531
6	56752	17795.481966907748	532
6	56810	17813.191650222326	533
6	56825	17817.558160694623	534
6	56827	17817.979599055985	535
6	56871	17830.167781071767	536
6	56912	17844.508597885195	537
6	57157	17921.710060134188	538
6	57214	17937.202814652951	539
6	57438	18013.561573173216	540
6	57515	18035.099878483601	541
6	57621	18065.734203620673	542
6	57636	18069.730429870252	543
6	57648	18073.877484087985	544
6	57686	18083.735627137148	545
6	57708	18091.274945661444	546
6	57738	18100.180561773772	547
6	57870	18141.029394507519	548
6	57914	18157.135813322211	549
6	57916	18158.042619569551	550
6	58095	18213.558496013701	551
6	58155	18233.685923849011	552
6	58192	18243.848857179866	553
6	58229	18253.1052756522	554
6	58265	18261.914512637451	555
6	58464	18324.856241332045	556
6	58489	18331.591457067772	557
6	58544	18352.916889366643	558
6	58621	18376.307861623453	559
6	58830	18438.202356501214	560
6	58853	18442.680517976151	561
6	58876	18450.410675536455	562
6	59008	18490.317946507702	563
6	59013	18492.559361495184	564
6	59071	18508.183121464754	565
6	59205	18550.212647214426	566
6	59241	18559.886787238507	567
6	59294	18577.205717388281	568
6	59300	18577.772528496409	569
6	59319	18582.65819116768	570
6	59383	18604.999257839248	571
6	59484	18637.302666432514	572
6	59519	18645.931647904436	573
6	59728	18709.606235713745	574
6	59740	18712.906434943839	575
6	59818	18737.324107491072	576
6	59868	18750.749147583228	577
6	59931	18772.738168992679	578
6	60066	18814.970566018888	579
6	60144	18841.963143802303	580
6	60179	18852.390549385773	581
6	60341	18903.099853805573	582
6	60435	18934.679739949344	583
6	60483	18950.109332677792	584
6	60529	18963.094997022072	585
6	60579	18978.073143618278	586
6	60686	19008.54742841905	587
6	60722	19018.500948916407	588
6	60973	19095.756339956491	589
6	61123	19143.422930972295	590
6	61133	19145.851340354523	591
6	61202	19167.660822201929	592
6	61259	19184.323717767677	593
6	61293	19197.023360771393	594
6	61497	19260.653621297931	595
6	61854	19380.894266416762	596
6	62006	19427.533943099566	597
6	62018	19429.848087811349	598
6	62064	19445.260079808465	599
6	62102	19457.04642602636	600
6	62153	19472.043919950505	601
6	62291	19518.632597965564	602
6	62334	19532.138851334068	603
6	62353	19537.665369798132	604
6	62363	19541.563088060832	605
6	62386	19549.223133792385	606
6	62409	19557.65075265689	607
6	62649	19628.815342873826	608
6	62687	19642.869127655342	609
6	62742	19658.556171023908	610
6	62767	19665.655154254461	611
6	62778	19668.958326166069	612
6	63103	19770.453663013438	613
6	63309	19834.713769631019	614
6	63361	19850.631055121438	615
6	63713	19969.649328392635	616
6	63720	19971.481290254769	617
6	63755	19981.253286668546	618
6	63944	20038.020624323986	619
6	63974	20044.938703028616	620
6	64198	20114.03702413241	621
6	64235	20126.655153384777	622
6	64272	20137.813709703487	623
6	64299	20144.769788956489	624
6	64378	20168.506466911751	625
6	64411	20178.612155877058	626
6	64434	20186.426345804085	627
6	64493	20207.280357434664	628
6	64543	20222.81170196023	629
6	64592	20239.496959094124	630
6	64676	20264.428097558895	631
6	64734	20283.425667726253	632
6	64938	20343.162814803379	633
6	64940	20343.879847750941	634
6	65011	20367.619547067806	635
6	65172	20414.238373010761	636
6	65251	20439.934479840004	637
6	65302	20456.224929977609	638
6	65324	20463.398886894208	639
6	65386	20481.303314663879	640
6	65489	20517.125254353836	641
6	65574	20540.240985928912	642
6	65584	20543.63548599502	643
6	65660	20562.612687124927	644
6	65662	20562.649672203905	645
6	65676	20566.579708037961	646
6	65708	20575.589255878927	647
6	65774	20591.945175379698	648
6	65931	20639.443914374925	649
6	65964	20652.062351885123	650
6	66012	20665.154683987426	651
6	66040	20672.690537418976	652
6	66101	20694.370209557073	653
6	66135	20704.149520182561	654
6	66283	20748.275700265354	655
6	66371	20774.754928642508	656
6	66534	20822.975121348207	657
6	66587	20839.812376045235	658
6	66601	20842.796039791744	659
6	66615	20846.220196548189	660
6	66710	20875.576878811351	661
6	66867	20925.361804728361	662
6	66893	20933.267723185848	663
6	66951	20952.942387162787	664
6	67043	20983.761369389689	665
6	67093	21000.097416401229	666
6	67223	21038.255627271943	667
6	67269	21054.378369259815	668
6	67271	21054.787884208623	669
6	67297	21063.904567827983	670
6	67302	21065.029168457813	671
6	67328	21072.858480966644	672
6	67414	21099.767153113381	673
6	67538	21137.967716211529	674
6	67607	21158.361436159223	675
6	67757	21200.224853040752	676
6	67764	21203.212023007498	677
6	67789	21210.875340668416	678
6	68019	21284.831355905374	679
6	68145	21325.066496065524	680
6	68208	21344.630268699454	681
6	68298	21372.665326843278	682
6	68320	21379.242963502605	683
6	68575	21457.60292535786	684
6	68593	21465.058360380951	685
6	68635	21477.450688678485	686
6	69013	21598.657314918177	687
6	69088	21626.230645870215	688
6	69121	21638.44599787925	689
6	69132	21640.896111678117	690
6	69137	21641.67989986766	691
6	69215	21666.68394343069	692
6	69237	21672.968452521351	693
6	69283	21689.589500720119	694
6	69377	21714.568853551598	695
6	69466	21743.655088701265	696
6	69555	21770.131646946384	697
6	69826	21852.495329576034	698
6	69854	21862.204895777235	699
6	70041	21922.819055535174	700
6	70098	21943.619014426501	701
6	70130	21951.66623710277	702
6	70157	21960.331514843315	703
6	70171	21962.162600720808	704
6	70213	21976.807320480561	705
6	70354	22018.358814020587	706
6	70436	22044.500262437285	707
6	70462	22051.401009772125	708
6	70499	22062.342623393607	709
6	70519	22068.417962086084	710
6	70539	22075.252551999902	711
6	70598	22092.223597268303	712
6	70648	22109.111199216979	713
6	70675	22116.810658406713	714
6	70829	22165.562214259686	715
6	70923	22196.818208547231	716
6	71034	22230.889479021451	717
6	71048	22233.371171222949	718
6	71143	22265.529038174052	719
6	71194	22279.442256344469	720
6	71242	22295.607810808728	721
6	71257	22300.327567441623	722
6	71679	22435.709712668607	723
6	71929	22513.871950462675	724
6	72036	22548.115722854729	725
6	72273	22619.208733929845	726
6	72374	22649.078389181579	727
6	72579	22712.982905064001	728
6	72664	22739.389075894175	729
6	72680	22744.960726237436	730
6	73205	22909.117889229346	731
6	73519	23006.573042251066	732
6	73675	23055.579315027162	733
6	73937	23141.136641685566	734
6	73973	23151.470784850837	735
6	74040	23171.328862996953	736
6	74072	23180.330660361105	737
6	74267	23246.959839727215	738
6	74276	23248.870423812022	739
6	74314	23262.571925451865	740
6	74336	23269.566844015009	741
6	74351	23273.157372797487	742
6	74451	23304.313333880468	743
6	74519	23327.933059500205	744
6	74542	23335.917609450924	745
6	74746	23399.446152371656	746
6	74858	23434.069701034998	747
6	74903	23444.986671835325	748
6	75013	23479.03079277764	749
6	75085	23504.993086901711	750
6	75184	23535.792585731729	751
6	75512	23640.762715298358	752
6	75584	23662.408996597398	753
6	75815	23737.625347219247	754
6	75946	23780.332348199978	755
6	75953	23782.179063828186	756
6	75971	23785.89536245588	757
6	76018	23800.503284873062	758
6	76047	23808.123549782346	759
6	76358	23906.724620902113	760
6	76376	23913.128623268868	761
6	76626	23990.960265267665	762
6	76829	24054.322360423687	763
6	76871	24066.741553633338	764
6	76895	24077.149702190803	765
6	76983	24102.320837587369	766
6	77023	24115.586986545933	767
6	77075	24132.47465413388	768
6	77103	24141.28252166009	769
6	77113	24145.073734649118	770
6	77134	24150.217168251072	771
6	77156	24157.182890873829	772
6	77349	24219.243090511482	773
6	77461	24252.911255573545	774
6	77482	24257.211336257959	775
6	77592	24291.745225032352	776
6	77635	24307.652574090144	777
6	77651	24311.378018369756	778
6	77674	24317.98152202896	779
6	77702	24325.306804701347	780
6	78039	24438.598156496024	781
6	78069	24447.69899309096	782
6	78088	24453.659379413022	783
6	78125	24465.467748081296	784
6	78158	24475.332879539528	785
6	78201	24489.373923861876	786
6	78227	24497.94732449242	787
6	78322	24528.128366504866	788
6	78433	24561.855234417388	789
6	78554	24604.019251378116	790
6	78697	24647.534042737757	791
6	78907	24714.022580708257	792
6	78941	24726.519628416411	793
6	79017	24754.463258863164	794
6	79072	24771.587779951536	795
6	79101	24780.73448986622	796
6	79506	24905.724635743759	797
6	79597	24934.100557428902	798
6	79703	24962.206013923497	799
6	79749	24973.743626475716	800
6	79775	24980.517160701321	801
6	79946	25042.607502007811	802
6	80054	25073.443718514945	803
6	80128	25099.807521948764	804
6	80181	25116.95563015211	805
6	80183	25117.077839776649	806
6	80200	25123.336251851314	807
6	80253	25142.345562241275	808
6	80353	25171.034852419433	809
6	80516	25222.092166261734	810
6	80595	25250.176398259277	811
6	80667	25271.550008601536	812
6	80749	25296.993812768854	813
6	81166	25423.262602623973	814
6	81190	25428.290305978698	815
6	81237	25442.987237695313	816
6	81327	25469.024825222299	817
6	81560	25542.784693690483	818
6	81603	25556.602155003258	819
6	81795	25614.145214035112	820
6	81851	25630.046008324892	821
6	81999	25678.185023460601	822
6	82065	25702.255177390577	823
6	82146	25725.813831811368	824
6	82186	25737.827488153668	825
6	82228	25751.180376450747	826
6	82290	25771.061926961266	827
6	82408	25805.827359906946	828
6	82517	25841.979579764316	829
6	82519	25842.275636158988	830
6	82554	25852.734883212732	831
6	82635	25878.0708720533	832
6	82761	25916.272114424415	833
6	82793	25924.068400268041	834
6	82825	25932.80146935391	835
6	82849	25939.604117191092	836
6	82886	25952.968497963751	837
6	82948	25972.136765198864	838
6	83019	25992.841686617122	839
6	83198	26052.969845098604	840
6	83219	26058.313848296733	841
6	83431	26124.985161982794	842
6	83504	26146.071275993153	843
6	83667	26197.912230061724	844
6	83846	26255.969764456043	845
6	83920	26276.368281644155	846
6	84031	26307.295864457868	847
6	84119	26333.139456300752	848
6	84128	26334.568836255195	849
6	84153	26343.797258550604	850
6	84158	26344.426519901888	851
6	84192	26354.102392540937	852
6	84418	26421.769630286114	853
6	84453	26432.765665133931	854
6	84547	26462.326271870562	855
6	84568	26470.815934029203	856
6	84638	26493.668083250437	857
6	84699	26513.941517614355	858
6	84704	26515.338430307764	859
6	84842	26556.535094006714	860
6	84916	26578.297161118216	861
6	85206	26670.955191405596	862
6	85277	26691.690723659854	863
6	85588	26783.747772646501	864
6	85768	26843.574245428758	865
6	85916	26892.604348363747	866
6	86083	26949.266482639618	867
6	86114	26958.484356004406	868
6	86149	26966.757610159046	869
6	86183	26973.524804169828	870
6	86221	26983.123468850511	871
6	86241	26988.484759733418	872
6	86273	26998.18904719942	873
6	86404	27039.005380960358	874
6	86448	27054.941551232289	875
6	86561	27092.091417847795	876
6	86698	27137.19159512839	877
6	86927	27211.061049281642	878
6	86934	27212.487992210111	879
6	87005	27233.90357062862	880
6	87166	27284.802607295292	881
6	87288	27322.632286385366	882
6	87310	27330.571205565943	883
6	87378	27349.03701737681	884
6	87458	27372.304478521526	885
6	87492	27381.778412492269	886
6	87500	27384.200149469812	887
6	87507	27385.922483887494	888
6	87511	27386.205081767469	889
6	87533	27393.37953905166	890
6	87757	27467.068637247523	891
6	87778	27472.306906571553	892
6	87947	27525.96259210709	893
6	88070	27563.963442835823	894
6	88369	27656.917253812218	895
6	88981	27854.044181535012	896
6	89018	27866.205513277877	897
6	89105	27893.007225838609	898
6	89343	27974.211990001817	899
6	89364	27981.647541937632	900
6	89374	27986.317673498545	901
6	89456	28009.94533089492	902
6	89495	28023.818763794201	903
6	89543	28038.604496078383	904
6	89656	28071.420400035866	905
6	89677	28076.130481725012	906
6	90262	28266.517817592584	907
6	90264	28267.311092226822	908
6	90310	28278.430062139919	909
6	90345	28290.716792230837	910
6	90378	28302.383585071895	911
6	90484	28339.538163988464	912
6	90496	28342.795198077684	913
6	90509	28346.108575510567	914
6	90513	28347.497251455836	915
6	90738	28418.748950909301	916
6	90953	28491.963272873591	917
6	91020	28513.772089296334	918
6	91205	28570.978862119821	919
6	91221	28574.389120601238	920
6	91257	28584.59466392301	921
6	91322	28603.534497672105	922
6	91327	28605.108548541725	923
6	91455	28644.127847049656	924
6	91468	28647.484796445711	925
6	91489	28655.268424877236	926
6	91581	28684.899929159841	927
6	91789	28753.132373965446	928
6	92045	28830.767174695887	929
6	92204	28880.907769506929	930
6	92279	28901.106431112306	931
6	92422	28944.312712178587	932
6	92445	28951.632776992766	933
6	92471	28956.583148218452	934
6	92829	29072.899941610503	935
6	92997	29125.825770247152	936
6	93084	29149.862841532021	937
6	93089	29151.530267042693	938
6	93136	29166.859840652745	939
6	93163	29175.381066170222	940
6	93200	29185.453734506231	941
6	93260	29204.369680084641	942
6	93264	29205.214987261449	943
6	93266	29205.218549876196	944
6	93343	29231.433999923084	945
6	93599	29315.84055481862	946
6	93699	29347.433079382419	947
6	93755	29362.767537333068	948
6	93981	29435.320646914933	949
6	94017	29448.237923866063	950
6	94336	29545.438628447563	951
6	94415	29568.453634794617	952
6	94491	29592.354159730131	953
6	94717	29665.802917951577	954
6	94829	29701.740242781698	955
6	94870	29713.019687829812	956
6	94914	29725.676678390317	957
6	95127	29794.111020259271	958
6	95325	29859.385105058256	959
6	95345	29865.053657205352	960
6	95534	29923.836644292947	961
6	95657	29964.879266255298	962
6	95739	29989.788526268332	963

