version 2
run Third_exit_9-4-20191114-11:43:06-9055
attr configname Third_exit_9
attr datetime 20191114-11:43:06
attr experiment Third_exit_9
attr inifile omnetpp.ini
attr iterationvars ""
attr iterationvarsf ""
attr measurement ""
attr network ResponseTimeNetwork
attr processid 9055
attr repetition 4
attr replication #4
attr resultdir results
attr runnumber 4
attr seedset 4
param **.Source.interArrivalTime exponential(6s)
param **.jobPriority bernoulli(0.8)
param **.PS.serviceTimeU1 "uniform(1.2s, 2.0s)"
param **.PS.serviceTimeU2 "uniform(2.4s, 2.8s)"
param **.SS1.serviceTime exponential(1.4s)
param **.SS2.serviceTime exponential(2s)
param **.PS.exitProbability bernoulli(0.9)

vector 0 ResponseTimeNetwork.SS1 queueLength:vector ETV
attr interpolationmode sample-hold
attr title "queue length, vector"
vector 1 ResponseTimeNetwork.QueueU1 queueLength:vector ETV
attr interpolationmode sample-hold
attr title "queue length, vector"
vector 2 ResponseTimeNetwork.sink lifeTimeU1:vector ETV
attr interpolationmode none
attr title "lifetime of arrived jobs U1, vector"
attr unit s
vector 3 ResponseTimeNetwork.sink totalServiceTimeU1:vector ETV
attr interpolationmode none
attr title "the total time spent  by arrived jobs U1, vector"
attr unit s
vector 4 ResponseTimeNetwork.sink lifeTime:vector ETV
attr interpolationmode none
attr title "lifetime of arrived jobs, vector"
attr unit s
vector 5 ResponseTimeNetwork.sink totalServiceTime:vector ETV
attr interpolationmode none
attr title "the total time spent  by arrived jobs, vector"
attr unit s
vector 6 ResponseTimeNetwork.QueueU2 queueLength:vector ETV
attr interpolationmode sample-hold
attr title "queue length, vector"
0	33224	10000.477524291967	3
0	33229	10000.984885657104	2
0	33232	10002.584231585861	3
0	33234	10003.782658130117	2
0	33239	10004.344692918546	1
0	33241	10005.466283398835	0
0	33244	10005.903623157218	1
0	33249	10007.462532774396	2
0	33254	10009.161132361218	3
0	33256	10010.159177467579	2
0	33258	10010.1894546709	1
0	33261	10010.955745584741	2
0	33266	10012.437704337239	3
0	33268	10013.111026956668	2
0	33271	10014.192515026256	3
0	33273	10014.898393579121	2
0	33275	10015.735530127848	1
0	33278	10015.953052909895	2
0	33281	10017.585896314903	3
0	33283	10019.094889090341	2
0	33286	10019.290394679866	3
0	33288	10020.430837107648	2
0	33292	10020.514696195815	1
0	33295	10020.902600773088	2
0	33298	10022.668875592052	3
0	33300	10022.696758709556	2
0	33302	10024.322565324669	1
0	33307	10025.732587090753	0
0	33315	10027.358459128103	1
0	33318	10028.719259941614	2
0	33320	10029.559814429176	1
0	33323	10030.193984666317	2
0	33325	10031.415311878251	1
0	33328	10031.677689867131	2
0	33330	10031.781979663524	1
0	33332	10031.943232423906	0
0	33389	10048.66308346618	1
0	33391	10049.193373616961	0
0	33406	10054.216632963382	1
0	33408	10055.49803750055	0
0	33411	10055.525637432784	1
0	33413	10056.91593763881	0
0	33416	10057.110929227285	1
0	33418	10057.41198203861	0
0	33421	10058.614213108309	1
0	33424	10059.85806323722	2
0	33427	10061.173633803278	3
0	33429	10062.152176946306	2
0	33434	10062.420518545471	3
0	33436	10062.986552427629	2
0	33438	10063.06372424574	1
0	33443	10063.734455887824	2
0	33445	10064.941946869812	1
0	33447	10064.987902938715	0
0	33450	10065.472960795313	1
0	33452	10065.685514039548	0
0	33462	10068.651867535375	1
0	33464	10070.306177453119	0
0	33467	10070.363093217686	1
0	33469	10071.024740907682	0
0	33482	10075.209758766033	1
0	33484	10075.709046031771	0
0	33487	10076.830231763087	1
0	33490	10078.380520898513	2
0	33492	10079.679412885838	1
0	33495	10079.893020266145	2
0	33497	10080.147427711594	1
0	33499	10080.370181812292	0
0	33502	10081.307937727347	1
0	33506	10082.472666201534	0
0	33522	10086.982815534287	1
0	33525	10088.309816732668	2
0	33528	10089.584422974885	3
0	33530	10090.179045604551	2
0	33532	10090.348481856738	1
0	33541	10091.628446998525	0
0	33544	10092.439837111943	1
0	33546	10093.322110067648	0
0	33549	10093.671798567884	1
0	33551	10094.903857985364	0
0	33559	10096.401267373785	1
0	33561	10096.680765615014	0
0	33564	10097.870239692218	1
0	33566	10098.258821939182	0
0	33617	10115.238045288286	1
0	33621	10115.794307406301	0
0	33629	10118.642621069438	1
0	33631	10119.404762544167	0
0	33634	10120.12299891509	1
0	33636	10120.144020162315	0
0	33641	10121.443916565216	1
0	33643	10121.877085353822	0
0	33675	10131.355852326973	1
0	33678	10133.088468017465	2
0	33683	10135.379449280119	1
0	33690	10136.91745110642	2
0	33695	10139.127051371413	1
0	33698	10140.420607145911	2
0	33700	10140.561252656025	1
0	33702	10141.717534019883	0
0	33734	10149.994028058498	1
0	33736	10150.720736274732	0
0	33739	10151.208561773448	1
0	33741	10151.564554884711	0
0	33774	10162.918299874513	1
0	33776	10163.726019560695	0
0	33779	10164.39019222915	1
0	33781	10164.939733093439	0
0	33803	10170.322079604154	1
0	33808	10171.595215598715	2
0	33813	10173.495408337598	3
0	33815	10173.880428661868	2
0	33817	10174.521668781202	1
0	33823	10176.998854181578	2
0	33825	10178.069679316945	1
0	33828	10178.48364930324	2
0	33831	10180.033097217825	3
0	33834	10181.612963221256	4
0	33837	10183.37794598512	5
0	33841	10184.240501152243	4
0	33844	10184.65817585982	5
0	33847	10186.211341390233	6
0	33849	10187.088660894651	5
0	33857	10189.207698987085	6
0	33859	10190.363285967782	5
0	33862	10190.675721444409	6
0	33867	10192.373442975837	7
0	33869	10193.288480184536	6
0	33872	10193.828349698927	7
0	33875	10195.231031655181	8
0	33880	10196.811058407259	7
0	33882	10196.942556470324	6
0	33885	10198.071882974204	7
0	33890	10199.726193142157	8
0	33892	10200.75572615716	7
0	33895	10201.533668234233	8
0	33898	10202.799042103101	9
0	33900	10203.93400729993	8
0	33902	10203.990009194222	7
0	33904	10204.318355828147	6
0	33906	10204.333962831486	5
0	33908	10204.469476027131	4
0	33913	10204.745689599358	3
0	33918	10205.749851075035	4
0	33920	10205.964650813786	3
0	33927	10207.324342935939	4
0	33929	10207.731395747126	3
0	33931	10207.776935708481	2
0	33934	10208.841283750009	3
0	33936	10209.399854038546	2
0	33938	10210.14345261636	1
0	33940	10210.600329472955	0
0	33943	10210.830747476999	1
0	33945	10210.857597590949	0
0	33979	10223.97195361409	1
0	33982	10225.751827666756	2
0	33984	10226.684806213829	1
0	33986	10227.015404811187	0
0	33991	10227.614466727559	1
0	33994	10229.203385209512	2
0	33997	10230.475866219994	3
0	33999	10231.072116706044	2
0	34004	10232.106586542946	3
0	34006	10232.166544047844	2
0	34008	10233.294868328344	1
0	34011	10233.527270264399	2
0	34016	10235.741286222668	1
0	34018	10236.292280066792	0
0	34021	10236.684945854206	1
0	34023	10237.472153990816	0
0	34043	10242.304515991394	1
0	34048	10243.633166418072	2
0	34050	10245.169541884231	1
0	34053	10245.305168709193	2
0	34055	10245.475045136824	1
0	34057	10245.978233161123	0
0	34060	10246.820841571909	1
0	34062	10248.046995797045	0
0	34065	10248.425488352996	1
0	34068	10249.717102378455	2
0	34071	10251.034436549095	3
0	34073	10251.202604240598	2
0	34075	10252.087074762813	1
0	34078	10252.509361151641	2
0	34081	10254.183635128883	3
0	34084	10255.827171906491	4
0	34086	10256.942692018075	3
0	34088	10257.200815599814	2
0	34091	10257.214058574137	3
0	34093	10257.382643650062	2
0	34096	10258.576265902479	3
0	34098	10259.035328264941	2
0	34100	10259.629869928223	1
0	34103	10260.13556674536	2
0	34107	10261.044215809981	1
0	34109	10261.168741330368	0
0	34146	10271.712415011634	1
0	34148	10271.713176684758	0
0	34151	10273.318911543895	1
0	34154	10275.086948478815	2
0	34159	10276.354633411799	3
0	34162	10277.650499392707	4
0	34165	10279.405900704894	5
0	34170	10281.337400299717	6
0	34172	10282.323577510727	5
0	34174	10282.638400713528	4
0	34176	10282.901880185939	3
0	34179	10282.914514249783	4
0	34181	10283.343203005925	3
0	34183	10284.060870836358	2
0	34186	10284.292677049186	3
0	34189	10285.792060187306	4
0	34192	10287.060094663348	5
0	34194	10287.107670123956	4
0	34196	10287.580758123052	3
0	34198	10288.467477926778	2
0	34201	10288.613821724277	3
0	34203	10288.806343016185	2
0	34206	10290.169585558061	3
0	34211	10291.519665485654	4
0	34214	10292.875067158822	5
0	34216	10293.827442029922	4
0	34221	10294.854563130472	5
0	34223	10294.903177647568	4
0	34225	10295.747926931046	3
0	34228	10296.654357019473	4
0	34233	10298.279012616757	5
0	34235	10299.918267530548	4
0	34237	10300.149029871503	3
0	34240	10300.270026801187	4
0	34244	10301.286143757182	3
0	34247	10302.098285781811	4
0	34250	10303.685335742529	5
0	34254	10304.671325432748	4
0	34257	10305.139201285909	5
0	34259	10305.207330883573	4
0	34261	10305.412846763444	3
0	34267	10308.109646428036	4
0	34271	10308.602626204236	3
0	34274	10309.4205312515	4
0	34279	10311.317531083929	5
0	34282	10313.271035448121	6
0	34284	10313.696920763023	5
0	34286	10314.710533012625	4
0	34291	10315.011477634715	5
0	34294	10316.793269853512	6
0	34296	10317.30307835632	5
0	34298	10318.243667022393	4
0	34301	10318.652798587116	5
0	34303	10320.068698939795	4
0	34305	10320.253305885943	3
0	34308	10320.392310583624	4
0	34310	10321.863307171931	3
0	34313	10321.914361345801	4
0	34315	10322.89201427678	3
0	34317	10323.254102919013	2
0	34319	10323.327618224736	1
0	34322	10323.82375521123	2
0	34324	10325.266789411979	1
0	34327	10325.477291590009	2
0	34329	10325.478039957798	1
0	34331	10326.113882239552	0
0	34348	10330.433431714993	1
0	34353	10332.381838962842	2
0	34360	10333.783460225012	3
0	34362	10334.019153620783	2
0	34364	10335.092384703061	1
0	34366	10335.49156022634	0
0	34369	10335.683034659769	1
0	34374	10337.423442143049	2
0	34376	10338.626096100254	1
0	34379	10339.381639902513	2
0	34381	10340.110060789547	1
0	34384	10340.974877852048	2
0	34386	10340.985500282026	1
0	34390	10342.61280618597	0
0	34393	10342.863378895293	1
0	34395	10343.044011731616	0
0	34410	10347.271761994656	1
0	34413	10348.49648329563	2
0	34418	10349.936263627406	3
0	34420	10350.483386265814	2
0	34422	10350.679162787571	1
0	34424	10350.705601357912	0
0	34442	10356.374905770492	1
0	34445	10357.995760022696	2
0	34447	10358.244944772746	1
0	34452	10359.519820610654	2
0	34454	10360.846395227026	1
0	34457	10360.92766002122	2
0	34462	10363.541855607933	1
0	34465	10363.794005860236	2
0	34467	10364.236493479317	1
0	34470	10365.035575019043	2
0	34472	10365.76274330748	1
0	34474	10366.225002893281	0
0	34509	10375.770958505605	1
0	34511	10376.688216767326	0
0	34514	10377.495206489076	1
0	34518	10378.808332405232	0
0	34524	10380.621828297188	1
0	34526	10381.586253484241	0
0	34534	10384.027086153289	1
0	34536	10384.213183945687	0
0	34539	10385.342399817368	1
0	34542	10386.880531058496	2
0	34544	10387.053939417094	1
0	34547	10388.371762994712	2
0	34552	10390.426219377775	1
0	34555	10391.035120282358	2
0	34557	10392.051836526091	1
0	34560	10392.472697120941	2
0	34564	10393.774342005371	1
0	34567	10394.352334902658	2
0	34569	10395.001735173283	1
0	34571	10395.420679953366	0
0	34574	10395.632510952874	1
0	34580	10396.2510766776	0
0	34603	10403.685244331918	1
0	34607	10404.782641185671	0
0	34610	10405.327740689217	1
0	34612	10406.523937754031	0
0	34615	10406.664616178571	1
0	34619	10406.84586539369	0
0	34624	10407.92548768673	1
0	34628	10408.307891381605	0
0	34638	10411.209187690018	1
0	34640	10411.465056145014	0
0	34652	10414.327822732588	1
0	34654	10414.892630863946	0
0	34664	10417.307263988851	1
0	34666	10418.703363422453	0
0	34674	10421.188899233973	1
0	34678	10422.291962256173	0
0	34696	10426.814978451503	1
0	34698	10428.32244328014	0
0	34701	10428.790285661479	1
0	34703	10428.863645445819	0
0	34706	10430.690457513218	1
0	34708	10430.96556874023	0
0	34728	10436.835820754094	1
0	34730	10437.565470524199	0
0	34733	10438.080450986361	1
0	34736	10439.779457583872	2
0	34738	10440.08521428146	1
0	34740	10441.33683370478	0
0	34743	10441.463878595305	1
0	34745	10442.497607608796	0
0	34750	10443.353205753898	1
0	34753	10444.761568390799	2
0	34756	10446.529964881425	3
0	34759	10447.801882825268	4
0	34761	10448.134481522172	3
0	34768	10449.678078325128	4
0	34772	10450.136888192432	3
0	34774	10450.167825458878	2
0	34776	10450.539182097573	1
0	34778	10450.976690619666	0
0	34858	10474.739096342992	1
0	34860	10474.760522548615	0
0	34865	10476.247909524139	1
0	34868	10477.918631851334	2
0	34870	10478.141909793573	1
0	34873	10479.161413531784	2
0	34875	10480.234144094424	1
0	34878	10480.728627415035	2
0	34880	10481.08786673618	1
0	34883	10482.291767007519	2
0	34885	10482.517498100526	1
0	34887	10482.584287052546	0
0	34892	10483.962854142148	1
0	34895	10485.905175616439	2
0	34897	10486.437335540627	1
0	34900	10487.254540330205	2
0	34903	10488.589131142419	3
0	34905	10488.981559405923	2
0	34907	10489.612177101733	1
0	34910	10489.986143627051	2
0	34912	10490.097719461968	1
0	34917	10491.439235374365	2
0	34919	10491.737437683707	1
0	34922	10492.735348838601	2
0	34924	10493.213568786526	1
0	34926	10493.453666072605	0
0	34929	10494.513227957893	1
0	34931	10494.954293867122	0
0	34955	10501.859554671716	1
0	34957	10502.765333704863	0
0	34975	10508.039888680015	1
0	34977	10508.340494635937	0
0	34992	10513.432728555088	1
0	34995	10514.870137110201	2
0	34998	10516.435237426904	3
0	35000	10516.554196954308	2
0	35002	10516.822254602687	1
0	35004	10517.690985557522	0
0	35015	10520.843878300895	1
0	35017	10521.009018445449	0
0	35042	10529.108021657763	1
0	35044	10529.499346379755	0
0	35091	10543.444951601734	1
0	35093	10544.074293272002	0
0	35096	10544.752113059571	1
0	35098	10545.530155795731	0
0	35101	10546.385941705702	1
0	35103	10547.806125523451	0
0	35106	10547.819592603518	1
0	35108	10548.985975334228	0
0	35111	10549.2217506491	1
0	35113	10549.618973718801	0
0	35146	10559.910235062278	1
0	35149	10561.346717293224	2
0	35151	10561.474249328913	1
0	35156	10563.344613917767	2
0	35159	10565.243051116764	3
0	35164	10566.727376725189	4
0	35166	10566.934773231862	3
0	35168	10567.352922498714	2
0	35172	10567.879252002242	1
0	35175	10568.535310569815	2
0	35177	10569.690623077514	1
0	35185	10572.080067290217	2
0	35188	10573.363463598155	3
0	35191	10574.926307283007	4
0	35196	10576.479040727978	3
0	35201	10577.605747127943	4
0	35204	10578.831895106323	5
0	35206	10578.852960343717	4
0	35211	10580.193438700437	5
0	35213	10580.34335162359	4
0	35215	10580.518946052741	3
0	35220	10581.671255134642	4
0	35223	10583.0152150134	5
0	35225	10583.525843609723	4
0	35228	10584.917875212655	5
0	35230	10585.218250352139	4
0	35232	10585.387932413224	3
0	35234	10586.086268850023	2
0	35237	10586.638324500286	3
0	35245	10588.048232522793	2
0	35250	10588.511271244201	1
0	35252	10589.164850092188	0
0	35279	10597.490133518764	1
0	35281	10598.014007208101	0
0	35316	10608.708763154075	1
0	35318	10608.940041378574	0
0	35321	10610.291728127227	1
0	35324	10611.885392606483	2
0	35326	10612.016469329485	1
0	35328	10612.221885096664	0
0	35385	10629.275912870877	1
0	35390	10631.098294960373	2
0	35393	10632.594775048495	3
0	35395	10632.984952481781	2
0	35398	10634.139596522265	3
0	35403	10636.099920941555	4
0	35409	10639.675889472142	5
0	35411	10639.736932300258	4
0	35413	10640.378345779401	3
0	35415	10640.419239430775	2
0	35417	10641.293013182642	1
0	35424	10642.080038136569	0
0	35432	10645.003027264997	1
0	35436	10646.1727210981	0
0	35439	10646.938734826669	1
0	35442	10648.183256481439	2
0	35447	10649.414197215848	3
0	35450	10651.059390431494	4
0	35452	10652.289996443444	3
0	35455	10652.940430965499	4
0	35457	10654.383751053165	3
0	35460	10654.519167587385	4
0	35462	10655.139872557382	3
0	35467	10657.27447361666	2
0	35470	10657.728788320013	3
0	35473	10659.195098835827	4
0	35475	10660.185403679529	3
0	35477	10660.259056389918	2
0	35480	10661.100119673499	3
0	35483	10662.345210594163	4
0	35487	10663.134359572624	3
0	35490	10663.694320289642	4
0	35492	10664.851105837902	3
0	35495	10665.387652298287	4
0	35497	10666.687879510557	3
0	35500	10667.156287954599	4
0	35505	10669.066217358634	5
0	35507	10669.258546125824	4
0	35510	10670.575894255601	5
0	35513	10672.298010678254	6
0	35515	10673.871336151337	5
0	35520	10674.088659823351	6
0	35522	10674.502484761303	5
0	35524	10674.753827179845	4
0	35529	10676.632596684407	3
0	35531	10677.173402665512	2
0	35537	10679.059313304946	3
0	35540	10680.705650018379	4
0	35545	10683.306360103058	3
0	35547	10683.707162924718	2
0	35550	10684.323097357378	3
0	35554	10685.684823629822	2
0	35556	10685.859461075631	1
0	35559	10686.185116513856	2
0	35561	10686.422590498118	1
0	35564	10687.682330438532	2
0	35567	10688.995504542477	3
0	35570	10690.428287209607	4
0	35574	10691.215604824833	3
0	35579	10691.695432356409	4
0	35584	10693.621246980167	5
0	35586	10694.237814040808	4
0	35588	10694.316214341329	3
0	35591	10694.910102880782	4
0	35593	10695.189525452771	3
0	35596	10696.796418041213	4
0	35601	10699.366513725346	3
0	35603	10699.416597871285	2
0	35606	10700.671622062137	3
0	35609	10701.941404392605	4
0	35611	10702.748565739178	3
0	35613	10703.873014233024	2
0	35616	10703.877150285651	3
0	35618	10704.817654677197	2
0	35621	10705.38940438613	3
0	35623	10706.906905684937	2
0	35626	10707.297029142861	3
0	35628	10708.084573049826	2
0	35630	10708.986509973691	1
0	35633	10709.015659995225	2
0	35635	10710.110409587742	1
0	35638	10710.72877458356	2
0	35641	10711.936364807781	3
0	35646	10713.865849941444	4
0	35648	10714.467243509532	3
0	35650	10714.517988226243	2
0	35653	10715.772544028085	3
0	35655	10715.815232703138	2
0	35662	10718.178897196228	1
0	35665	10718.250201803479	2
0	35667	10718.598773690871	1
0	35670	10719.832874045927	2
0	35672	10719.946652224411	1
0	35674	10720.775995550458	0
0	35679	10721.588662165251	1
0	35682	10722.808492819626	2
0	35684	10723.111807811235	1
0	35687	10724.044702243652	2
0	35690	10725.273046242479	3
0	35692	10725.784096048647	2
0	35694	10725.818971072511	1
0	35697	10727.045129789632	2
0	35700	10728.942184667137	3
0	35702	10730.057286239609	2
0	35705	10730.684810315293	3
0	35707	10730.759873807744	2
0	35709	10731.02585291545	1
0	35711	10731.880184339021	0
0	35714	10731.921166855876	1
0	35716	10732.400980238923	0
0	35731	10736.650886393186	1
0	35733	10737.604898713267	0
0	35736	10738.13380919214	1
0	35738	10738.947208763628	0
0	35741	10739.612761076201	1
0	35746	10741.061849596385	2
0	35749	10742.302081911672	3
0	35751	10742.557707509309	2
0	35754	10743.705690438334	3
0	35756	10744.676854438693	2
0	35759	10745.692307676781	3
0	35761	10746.229138008699	2
0	35764	10747.126581645418	3
0	35766	10747.865990705267	2
0	35768	10748.277964769871	1
0	35770	10748.328143799005	0
0	35773	10748.611474691551	1
0	35775	10749.446093723995	0
0	35778	10750.480295943875	1
0	35781	10752.316650184091	2
0	35783	10752.426043000581	1
0	35786	10753.654721175726	2
0	35791	10755.012199550155	3
0	35793	10756.007148829827	2
0	35796	10756.40299118239	3
0	35798	10756.693634385572	2
0	35803	10757.830192120779	3
0	35806	10759.254170592721	4
0	35808	10759.357847275808	3
0	35810	10759.376259332743	2
0	35812	10760.154279335115	1
0	35814	10760.597450194583	0
0	35817	10761.111836166527	1
0	35819	10761.838410278999	0
0	35832	10765.663379963334	1
0	35836	10766.046167441389	0
0	35839	10767.096718927692	1
0	35842	10768.504275738108	2
0	35844	10769.853198647092	1
0	35847	10770.159655710342	2
0	35849	10771.737636768594	1
0	35855	10773.429042379031	2
0	35858	10775.353833020883	3
0	35863	10776.677629555049	4
0	35865	10776.907262504601	3
0	35868	10778.329081971789	4
0	35870	10778.522778459498	3
0	35872	10778.712999960044	2
0	35874	10779.151950941419	1
0	35877	10779.916316019589	2
0	35879	10781.402723292321	1
0	35881	10781.614522330694	0
0	35904	10789.171291031535	1
0	35906	10789.283072713879	0
0	35939	10800.271434474955	1
0	35941	10800.681449622234	0
0	35962	10807.922856484572	1
0	35966	10809.427651345585	0
0	35979	10813.316035674544	1
0	35981	10813.426040043729	0
0	35984	10815.169656772198	1
0	35986	10815.660320472071	0
0	36023	10826.428092379154	1
0	36025	10826.633127550528	0
0	36035	10829.45802543483	1
0	36037	10829.697200512717	0
0	36064	10837.378340160877	1
0	36067	10839.370423410118	2
0	36069	10839.774889690938	1
0	36072	10841.122212290608	2
0	36074	10841.608577457637	1
0	36076	10841.97918312001	0
0	36104	10851.072044789448	1
0	36106	10851.233979894368	0
0	36109	10852.872756553284	1
0	36111	10854.409009259548	0
0	36114	10854.862878031685	1
0	36116	10855.274834617209	0
0	36129	10859.923867183767	1
0	36132	10861.470625736594	2
0	36135	10863.105595313601	3
0	36137	10863.141967769244	2
0	36140	10864.955912751548	3
0	36142	10865.475112334761	2
0	36144	10865.573798910373	1
0	36149	10866.157395277202	2
0	36151	10866.671522295077	1
0	36153	10867.402634827926	0
0	36156	10868.081631236367	1
0	36158	10868.089116582281	0
0	36176	10873.791730966448	1
0	36179	10875.000697828113	2
0	36181	10875.044923930009	1
0	36186	10876.975919275201	2
0	36189	10878.277072522073	3
0	36191	10879.049732311704	2
0	36193	10879.323053910239	1
0	36198	10879.861945793061	2
0	36200	10880.15846053678	1
0	36203	10881.639508048101	2
0	36206	10883.48639869134	3
0	36209	10885.123946631728	4
0	36211	10885.616600251076	3
0	36214	10887.007130205101	4
0	36216	10887.175734464344	3
0	36218	10887.305319019068	2
0	36221	10888.234123845241	3
0	36224	10889.61495266243	4
0	36227	10891.373653524584	5
0	36233	10892.974478100699	4
0	36236	10893.023719845741	5
0	36239	10894.463120951532	6
0	36241	10894.529539630485	5
0	36244	10895.964956975012	6
0	36246	10896.199862267915	5
0	36249	10897.551437857217	6
0	36251	10898.127242916399	5
0	36253	10898.299571887652	4
0	36258	10899.200528615369	5
0	36260	10900.763517197248	4
0	36263	10901.171858559018	5
0	36267	10901.42372686984	4
0	36270	10902.906864034785	5
0	36272	10903.988645840014	4
0	36274	10904.120994777957	3
0	36277	10904.853216342656	4
0	36279	10906.129998048493	3
0	36282	10906.408178724377	4
0	36284	10906.800203319511	3
0	36286	10907.28899849841	2
0	36288	10908.106664628055	1
0	36291	10908.172505154675	2
0	36294	10909.460230205609	3
0	36297	10910.807280189386	4
0	36302	10912.614473276614	5
0	36304	10912.811893355242	4
0	36306	10913.114688581056	3
0	36308	10913.755060651379	2
0	36311	10914.332415421149	3
0	36314	10915.533501317008	4
0	36316	10916.782802200083	3
0	36321	10916.838861213653	4
0	36323	10916.967516818763	3
0	36326	10918.095016402035	4
0	36328	10918.702476771531	3
0	36330	10919.162344703506	2
0	36333	10920.02542750056	3
0	36335	10920.837013074822	2
0	36337	10921.207433438466	1
0	36340	10921.463763787254	2
0	36342	10922.660781480136	1
0	36345	10922.691301325924	2
0	36347	10922.943825228746	1
0	36350	10923.92141958329	2
0	36352	10924.370126752316	1
0	36357	10925.221200959413	2
0	36359	10925.64279597032	1
0	36361	10925.741597027678	0
0	36422	10945.288514941772	1
0	36426	10946.170052595444	0
0	36451	10953.885647848463	1
0	36453	10954.01157501291	0
0	36458	10955.44482443708	1
0	36460	10955.857034437802	0
0	36488	10965.649636706738	1
0	36493	10967.528377007907	2
0	36496	10968.896136137685	3
0	36498	10969.030236136397	2
0	36500	10969.089590047385	1
0	36502	10970.375144034944	0
0	36505	10970.45571745134	1
0	36507	10971.304221695361	0
0	36510	10972.164483797765	1
0	36512	10973.51932611236	0
0	36520	10975.651566517754	1
0	36522	10975.747168919962	0
0	36530	10979.025802581414	1
0	36532	10979.207052412768	0
0	36548	10985.677374117478	1
0	36550	10986.064618545615	0
0	36553	10986.884190802678	1
0	36555	10986.892146729533	0
0	36558	10988.591161960393	1
0	36560	10990.117035234529	0
0	36609	11006.268371309743	1
0	36611	11006.55116366078	0
0	36619	11009.441968971521	1
0	36621	11009.609465139223	0
0	36641	11015.247338535294	1
0	36644	11016.683930742584	2
0	36646	11017.363242396852	1
0	36651	11018.195771989815	2
0	36654	11020.109090294346	3
0	36656	11020.256265952097	2
0	36659	11021.664717352047	3
0	36661	11021.995332332167	2
0	36663	11022.767818133479	1
0	36665	11023.035867750687	0
0	36673	11024.558759675018	1
0	36675	11025.107149068251	0
0	36678	11025.935806355096	1
0	36680	11026.358865472325	0
0	36693	11030.127259881637	1
0	36695	11030.828143077717	0
0	36698	11031.879546519956	1
0	36700	11031.99221571594	0
0	36703	11033.100377081922	1
0	36708	11034.383904224849	2
0	36710	11034.901101267093	1
0	36714	11035.486509000717	0
0	36732	11040.946493729978	1
0	36734	11041.774001503489	0
0	36737	11042.729280766874	1
0	36740	11044.175510309852	2
0	36743	11045.49681157305	3
0	36747	11046.27879753694	2
0	36754	11046.935583470604	3
0	36756	11047.104469588148	2
0	36758	11048.380700202518	1
0	36760	11048.60151278116	0
0	36763	11048.799528638861	1
0	36768	11050.170028943411	2
0	36770	11050.707427620197	1
0	36772	11051.020690921375	0
0	36800	11059.537693263805	1
0	36803	11061.299272844783	2
0	36805	11062.482593028712	1
0	36808	11062.735183894849	2
0	36811	11064.312021233542	3
0	36813	11065.73448556164	2
0	36816	11066.167532528965	3
0	36819	11067.540346438093	4
0	36821	11067.657538696762	3
0	36823	11068.543549157293	2
0	36825	11069.246144251968	1
0	36827	11069.360088044334	0
0	36830	11069.4499855066	1
0	36832	11070.687347170945	0
0	36835	11070.926446433394	1
0	36837	11071.121379579902	0
0	36879	11082.805667387349	1
0	36884	11084.760561507409	2
0	36887	11086.69221053238	3
0	36889	11086.891106634997	2
0	36891	11087.310651477494	1
0	36893	11087.330526052164	0
0	36914	11094.600670134676	1
0	36920	11095.165883337649	0
0	36928	11097.717641922487	1
0	36930	11098.067359147294	0
0	36933	11099.190355435787	1
0	36936	11101.082773292279	2
0	36941	11102.806004727101	3
0	36949	11105.532346386677	4
0	36951	11105.65010204072	3
0	36954	11106.787825319758	4
0	36956	11106.799364050798	3
0	36961	11108.156384821078	4
0	36966	11109.683350125542	5
0	36970	11109.913189633808	4
0	36973	11111.533846663339	5
0	36975	11113.33365175877	4
0	36978	11113.512633448681	5
0	36980	11114.012422940276	4
0	36982	11114.860753814042	3
0	36984	11115.023612177459	2
0	36986	11115.024109318721	1
0	36989	11115.427284881128	2
0	36991	11115.809146567678	1
0	36994	11116.772988674818	2
0	36996	11117.730697555495	1
0	36999	11118.197646434261	2
0	37003	11119.78220638502	1
0	37006	11119.861766910395	2
0	37008	11120.457977466626	1
0	37011	11121.743614138319	2
0	37013	11122.735462105715	1
0	37016	11123.167380229785	2
0	37021	11125.867814011468	1
0	37024	11126.583461682528	2
0	37026	11127.550693367885	1
0	37029	11128.128180883482	2
0	37036	11130.042997269081	1
0	37038	11130.107412447758	0
0	37046	11132.792102520011	1
0	37048	11133.886321261642	0
0	37064	11138.66482324063	1
0	37066	11138.921048514894	0
0	37102	11148.110313741705	1
0	37105	11150.041467522858	2
0	37109	11150.571987253724	1
0	37112	11151.675792997172	2
0	37114	11152.616666293476	1
0	37116	11152.968313812708	0
0	37119	11153.306448369315	1
0	37121	11153.438264604402	0
0	37131	11156.68271574623	1
0	37133	11156.994820928062	0
0	37138	11158.596021658583	1
0	37142	11159.285613737762	0
0	37145	11159.993396608932	1
0	37147	11160.264564530564	0
0	37154	11161.515096450439	1
0	37156	11162.680224213757	0
0	37161	11163.373008060856	1
0	37164	11165.106667765444	2
0	37166	11165.726643078012	1
0	37168	11166.017401097946	0
0	37171	11166.740155989146	1
0	37173	11166.831187825249	0
0	37186	11171.836947040475	1
0	37188	11173.573116915456	0
0	37191	11173.834273149475	1
0	37193	11174.638698875535	0
0	37238	11188.713021869616	1
0	37240	11188.988154948003	0
0	37243	11190.498054933207	1
0	37248	11191.888618648463	0
0	37251	11193.835616598124	1
0	37255	11194.67496873326	0
0	37287	11203.970459094676	1
0	37291	11204.713902833299	0
0	37342	11218.022751877305	1
0	37345	11219.253121706878	2
0	37347	11219.878622965122	1
0	37350	11220.517097497952	2
0	37352	11220.77643599455	1
0	37357	11224.022734922769	0
0	37360	11224.025877646764	1
0	37363	11225.447883123008	2
0	37365	11227.21194491134	1
0	37367	11227.297346975984	0
0	37436	11251.540509285999	1
0	37438	11252.042243433645	0
0	37446	11255.371303098125	1
0	37449	11256.907882982341	2
0	37451	11257.067476229298	1
0	37454	11258.845485513878	2
0	37456	11259.151838117361	1
0	37458	11259.466818750711	0
0	37463	11260.696649928984	1
0	37465	11261.210342202908	0
0	37490	11268.0881550765	1
0	37494	11268.243835365006	0
0	37502	11271.250273918953	1
0	37507	11272.498789308813	2
0	37509	11272.924827170209	1
0	37513	11273.500632255726	0
0	37538	11280.523838793521	1
0	37540	11280.787558975133	0
0	37550	11283.827398434502	1
0	37552	11284.170571471306	0
0	37555	11285.72570517495	1
0	37557	11286.134228140639	0
0	37560	11287.217046961037	1
0	37563	11288.532097165508	2
0	37565	11289.276044397709	1
0	37568	11289.967960006034	2
0	37570	11290.998702953024	1
0	37573	11291.232687650284	2
0	37576	11292.469015554374	3
0	37581	11294.280159724912	4
0	37583	11295.274847048478	3
0	37586	11296.063185739925	4
0	37588	11297.47893452217	3
0	37591	11298.000683425961	4
0	37593	11298.608065603964	3
0	37595	11298.747356783878	2
0	37599	11299.286352742724	1
0	37601	11299.318005140563	0
0	37651	11313.83708911877	1
0	37654	11315.060102899967	2
0	37656	11316.571044073633	1
0	37659	11316.842452191411	2
0	37661	11317.80111781101	1
0	37664	11318.17802066434	2
0	37668	11319.367999350925	1
0	37673	11319.872612550518	2
0	37675	11321.145162059495	1
0	37680	11321.355379261857	2
0	37682	11321.778522558675	1
0	37684	11322.494449375091	0
0	37692	11324.870395279339	1
0	37694	11326.688224734526	0
0	37697	11326.828316750972	1
0	37699	11327.170547148298	0
0	37707	11330.355250565743	1
0	37709	11331.114269057713	0
0	37747	11342.510490992327	1
0	37750	11344.42301429439	2
0	37753	11346.202644218911	3
0	37755	11347.02035221085	2
0	37758	11347.790404681337	3
0	37761	11349.110092327219	4
0	37764	11350.50464428052	5
0	37767	11351.74785099629	6
0	37770	11353.627768406492	7
0	37772	11353.778720535315	6
0	37774	11354.634737943809	5
0	37777	11355.060488368605	6
0	37779	11355.269157827933	5
0	37782	11356.385313217376	6
0	37785	11357.620032332872	7
0	37787	11357.902719087013	6
0	37790	11359.048145677929	7
0	37798	11362.515011768823	8
0	37800	11362.741740131165	7
0	37802	11363.527375603958	6
0	37805	11364.486883928475	7
0	37807	11364.616625211231	6
0	37809	11365.061266772691	5
0	37811	11366.40017579346	4
0	37816	11366.99728358406	3
0	37819	11367.956360130605	4
0	37821	11368.636277564238	3
0	37823	11369.09670248737	2
0	37826	11369.813389247504	3
0	37828	11370.240348161844	2
0	37830	11370.899924911187	1
0	37833	11371.589999461581	2
0	37835	11372.378277782146	1
0	37838	11373.421623407711	2
0	37840	11373.733581479391	1
0	37843	11375.018246867542	2
0	37847	11375.661094620408	1
0	37849	11375.662882045149	0
0	37852	11376.864018962008	1
0	37855	11378.543088394438	2
0	37858	11379.809424532984	3
0	37861	11381.241393344325	4
0	37864	11382.640930129995	5
0	37868	11383.21043272138	4
0	37871	11384.031690986862	5
0	37873	11384.129102794389	4
0	37876	11385.599118937959	5
0	37879	11387.113774441962	6
0	37881	11388.518933929539	5
0	37886	11388.710928538662	6
0	37894	11391.450331939418	7
0	37896	11393.079361572243	6
0	37899	11393.335502793674	7
0	37904	11395.375031048717	6
0	37907	11396.016306731511	7
0	37909	11396.995021461592	6
0	37911	11397.330157101439	5
0	37913	11397.363272357941	4
0	37916	11397.628093035739	5
0	37921	11399.178142676164	6
0	37923	11400.839282595635	5
0	37926	11400.972272096608	6
0	37928	11402.228742543609	5
0	37930	11402.851810014172	4
0	37933	11402.918159579147	5
0	37935	11402.918974668582	4
0	37937	11403.590760171708	3
0	37940	11404.136946977895	4
0	37942	11404.990493219336	3
0	37945	11405.617323841747	4
0	37947	11406.20983318025	3
0	37950	11407.141636780124	4
0	37953	11408.474041351523	5
0	37956	11409.867820330929	6
0	37958	11410.35282324339	5
0	37960	11411.282419303284	4
0	37963	11411.52585664339	5
0	37965	11411.645708892894	4
0	37967	11411.810406665604	3
0	37970	11413.517622335102	4
0	37973	11414.728045843947	5
0	37976	11416.058500342476	6
0	37978	11416.660684450732	5
0	37981	11417.842376620169	6
0	37984	11419.393095011297	7
0	37986	11419.781903282497	6
0	37988	11420.484893636336	5
0	37991	11420.754689599793	6
0	37993	11421.446652976284	5
0	37995	11421.530141015884	4
0	37998	11422.013496676866	5
0	38000	11422.239261870346	4
0	38002	11422.276545537443	3
0	38004	11422.847326784772	2
0	38007	11423.522607028518	3
0	38011	11424.893592548869	2
0	38014	11425.123317580145	3
0	38016	11426.171351450669	2
0	38019	11426.448467277024	3
0	38021	11428.116056242717	2
0	38024	11428.207558691349	3
0	38027	11429.503507838432	4
0	38030	11431.168605503287	5
0	38032	11432.424853599334	4
0	38035	11432.554050555114	5
0	38037	11433.614332915448	4
0	38040	11434.411800841276	5
0	38042	11434.74924232395	4
0	38045	11436.229469023306	5
0	38048	11437.652965095859	6
0	38050	11438.012870226978	5
0	38052	11438.103969195829	4
0	38055	11439.035435172204	5
0	38057	11439.305828509324	4
0	38060	11440.994946602207	5
0	38063	11442.432740396109	6
0	38068	11444.09450600281	7
0	38070	11445.250840778412	6
0	38073	11446.058929913897	7
0	38075	11446.648337596795	6
0	38078	11447.330785884928	7
0	38081	11448.643527093936	8
0	38083	11449.228368292301	7
0	38085	11449.416093487888	6
0	38088	11450.394359315407	7
0	38091	11451.690619334054	8
0	38093	11452.319863838472	7
0	38096	11453.248050071147	8
0	38098	11453.68159125443	7
0	38101	11454.449209292826	8
0	38103	11456.144410790752	7
0	38106	11456.297728464228	8
0	38108	11456.748533335262	7
0	38111	11457.729279320535	8
0	38113	11458.793052451117	7
0	38116	11459.246919408661	8
0	38118	11459.278596069214	7
0	38120	11460.571180601828	6
0	38123	11460.844975741987	7
0	38130	11463.554955020973	6
0	38133	11464.000009071675	7
0	38135	11464.606831035393	6
0	38140	11467.218711426639	5
0	38143	11467.400917089393	6
0	38145	11467.848290870143	5
0	38148	11469.026388416474	6
0	38150	11469.633541506238	5
0	38153	11470.724531235022	6
0	38156	11471.937470639904	7
0	38158	11472.497618951428	6
0	38161	11473.450310932693	7
0	38163	11474.565084132736	6
0	38166	11474.890581990068	7
0	38168	11475.864008491123	6
0	38171	11476.871798400988	7
0	38173	11476.993267191247	6
0	38177	11477.424181166895	5
0	38180	11478.743044393172	6
0	38182	11479.065824445833	5
0	38185	11479.991278474999	6
0	38187	11480.227673089166	5
0	38189	11480.325451411491	4
0	38191	11480.809015001786	3
0	38193	11480.867316818454	2
0	38196	11481.679330991243	3
0	38198	11481.823296197452	2
0	38200	11482.422811583665	1
0	38202	11482.676539987457	0
0	38205	11483.60290757328	1
0	38207	11484.360763878685	0
0	38210	11485.119532245432	1
0	38212	11485.725537196872	0
0	38215	11486.37160091236	1
0	38218	11487.759924823267	2
0	38220	11487.778749387543	1
0	38223	11489.366589468008	2
0	38225	11489.728880415998	1
0	38229	11490.183464024703	0
0	38232	11491.302547793871	1
0	38239	11493.230790601508	0
0	38257	11499.118595795741	1
0	38259	11500.264717517927	0
0	38262	11500.802883400989	1
0	38264	11500.961469033574	0
0	38267	11502.344059674477	1
0	38270	11503.914402206091	2
0	38272	11504.117509715968	1
0	38275	11505.160316367669	2
0	38277	11506.437941159837	1
0	38280	11506.491213832831	2
0	38284	11507.248365146889	1
0	38287	11508.289548678545	2
0	38289	11509.876908272952	1
0	38291	11509.95972884853	0
0	38294	11510.281161482667	1
0	38298	11511.356537885002	0
0	38301	11512.11991076268	1
0	38304	11513.995489996334	2
0	38307	11515.319479675626	3
0	38311	11516.393670763562	2
0	38314	11517.273914957268	3
0	38316	11517.478325478302	2
0	38318	11517.690726464778	1
0	38321	11519.102503062261	2
0	38323	11520.380569709069	1
0	38326	11521.028380005842	2
0	38330	11521.436951764439	1
0	38333	11523.002640001697	2
0	38335	11523.695675155172	1
0	38341	11526.084018902143	2
0	38344	11527.989740354789	3
0	38346	11529.192789488667	2
0	38349	11529.491842797806	3
0	38351	11529.92692249749	2
0	38353	11530.653202985611	1
0	38356	11530.805626402085	2
0	38358	11532.21656545628	1
0	38361	11532.484645905753	2
0	38364	11534.142656950315	3
0	38367	11535.607574644347	4
0	38372	11537.007040656952	5
0	38374	11537.537625010706	4
0	38376	11538.935086378848	3
0	38379	11538.942638329824	4
0	38382	11540.576932062802	5
0	38384	11541.263353085232	4
0	38387	11542.221730935608	5
0	38389	11542.887540555654	4
0	38392	11543.891965615225	5
0	38396	11545.306585348293	4
0	38401	11546.479867567667	3
0	38405	11546.826841267157	2
0	38407	11546.98366951913	1
0	38410	11547.08633774988	2
0	38412	11547.171654420924	1
0	38414	11548.074731300841	0
0	38417	11548.671464923989	1
0	38419	11549.070205317198	0
0	38429	11551.514364233274	1
0	38431	11551.800261869012	0
0	38439	11555.162175199796	1
0	38441	11555.847387819072	0
0	38444	11556.550284544226	1
0	38446	11556.819153919468	0
0	38449	11558.073678198491	1
0	38451	11558.488540885743	0
0	38454	11559.389721549337	1
0	38456	11560.156447740812	0
0	38459	11561.12319896653	1
0	38462	11562.431083068286	2
0	38464	11562.699644659181	1
0	38466	11563.89717380126	0
0	38477	11567.640661606041	1
0	38479	11567.950496469915	0
0	38482	11569.262148063665	1
0	38487	11571.205018508469	2
0	38489	11573.149019623303	1
0	38492	11573.17327292118	2
0	38494	11574.096584336903	1
0	38496	11574.868383895232	0
0	38499	11575.00534492064	1
0	38501	11575.864209388363	0
0	38560	11595.513374249114	1
0	38563	11596.827697093448	2
0	38566	11598.13625814285	3
0	38568	11598.429388717527	2
0	38570	11598.506003191816	1
0	38572	11599.431251897548	0
0	38575	11599.442496982439	1
0	38578	11600.738445224463	2
0	38583	11602.003554615601	3
0	38588	11603.96866732858	4
0	38590	11605.318163056065	3
0	38593	11605.417160936109	4
0	38595	11606.131946383166	3
0	38598	11607.384316133744	4
0	38600	11608.767106009557	3
0	38605	11609.236028408668	4
0	38608	11610.580276106521	5
0	38611	11612.306382944472	6
0	38613	11613.337164661418	5
0	38616	11613.581594963968	6
0	38619	11615.158005835712	7
0	38625	11616.541628683258	6
0	38628	11617.09637112435	7
0	38630	11617.306764645687	6
0	38634	11618.446755804773	5
0	38637	11618.653197510019	6
0	38639	11619.903448469671	5
0	38642	11620.526674108245	6
0	38644	11621.519917473444	5
0	38647	11622.007611654364	6
0	38652	11623.310867677853	7
0	38654	11623.342690379643	6
0	38656	11624.194679168755	5
0	38661	11624.677374975048	6
0	38664	11626.258298951052	7
0	38666	11627.699948867223	6
0	38672	11630.095871959478	7
0	38679	11631.330193475299	8
0	38681	11632.491377193177	7
0	38684	11632.96991736725	8
0	38687	11634.531317546256	9
0	38690	11636.078254251219	10
0	38693	11637.372270057574	11
0	38697	11639.185877411745	10
0	38700	11639.203181821518	11
0	38702	11639.318742481006	10
0	38705	11640.824600016177	11
0	38710	11642.701831328287	10
0	38718	11645.38404717207	11
0	38722	11645.798544339308	10
0	38725	11646.690443277956	11
0	38727	11646.902676644584	10
0	38730	11648.573490875066	11
0	38733	11650.439228394293	12
0	38736	11652.247333699316	13
0	38744	11654.956071322076	14
0	38746	11656.71808704127	13
0	38749	11656.756284661442	14
0	38752	11658.043447417617	15
0	38754	11658.519401365598	14
0	38756	11659.145417129057	13
0	38759	11659.947232359685	14
0	38764	11661.245975104384	15
0	38766	11661.398954670373	14
0	38769	11662.637860802226	15
0	38772	11663.879667257555	16
0	38774	11663.916015726092	15
0	38776	11664.65010356895	14
0	38778	11664.782827486701	13
0	38780	11665.148114433326	12
0	38783	11665.275415864811	13
0	38786	11667.262869610862	14
0	38788	11667.39662045291	13
0	38790	11667.950345837348	12
0	38793	11668.581622637847	13
0	38795	11669.292548237589	12
0	38798	11669.942673888282	13
0	38800	11670.034910757651	12
0	38805	11671.793509044164	13
0	38807	11671.804347337226	12
0	38809	11672.550207865968	11
0	38811	11672.910662088893	10
0	38813	11673.265421447145	9
0	38816	11673.383668867537	10
0	38819	11675.316606080012	11
0	38822	11676.55746292215	12
0	38826	11676.679160832048	11
0	38828	11677.048442940655	10
0	38831	11678.423467198612	11
0	38833	11678.836384414788	10
0	38835	11679.112637016243	9
0	38837	11679.196479945473	8
0	38839	11679.442014707939	7
0	38842	11680.31049578082	8
0	38844	11680.516914947408	7
0	38846	11681.453560887573	6
0	38854	11684.84278550984	5
0	38857	11684.860768782945	6
0	38859	11686.623966912991	5
0	38862	11686.831440492758	6
0	38864	11687.048225194274	5
0	38866	11687.426242748608	4
0	38872	11689.9647482837	5
0	38874	11691.515054336651	4
0	38876	11691.557619198194	3
0	38879	11691.744214992077	4
0	38881	11691.779736728607	3
0	38886	11693.608852770963	4
0	38888	11693.730475512118	3
0	38890	11693.864896348391	2
0	38892	11694.444096256013	1
0	38894	11694.664406325461	0
0	38897	11694.915128140562	1
0	38899	11695.221623656289	0
0	38925	11704.91150580518	1
0	38928	11706.333578872532	2
0	38930	11707.550756505214	1
0	38933	11708.029206850231	2
0	38936	11709.413764651902	3
0	38939	11710.614561902955	4
0	38942	11711.984787350371	5
0	38944	11712.169848254224	4
0	38946	11712.63590935942	3
0	38949	11713.807646495141	4
0	38951	11714.222508465611	3
0	38954	11715.423658559881	4
0	38957	11716.698983280398	5
0	38959	11716.745849574509	4
0	38963	11717.856196033516	3
0	38966	11717.911339354739	4
0	38968	11719.324246648206	3
0	38971	11719.714111438804	4
0	38973	11719.819695257582	3
0	38975	11720.9531466427	2
0	38977	11721.245552391439	1
0	38980	11721.381865970642	2
0	38982	11722.350116917379	1
0	38984	11722.595905158145	0
0	38987	11722.756225136519	1
0	38989	11724.48932374288	0
0	38992	11724.689200937599	1
0	38994	11724.715761804276	0
0	38997	11725.988979656287	1
0	39002	11727.387178272978	2
0	39005	11729.330342500322	3
0	39007	11730.169772325224	2
0	39012	11730.672920420804	3
0	39014	11731.652512986462	2
0	39017	11732.135036013314	3
0	39019	11733.257499150283	2
0	39022	11733.923917491586	3
0	39024	11734.760847486199	2
0	39027	11735.288964633309	3
0	39029	11736.20928964642	2
0	39032	11736.873889726438	3
0	39034	11737.931421232105	2
0	39037	11738.106599808708	3
0	39040	11739.953849990703	4
0	39043	11741.875707240626	5
0	39046	11743.331755442768	6
0	39048	11744.285523713778	5
0	39050	11744.653023104957	4
0	39053	11744.814982811957	5
0	39056	11746.378448274582	6
0	39058	11747.470245242584	5
0	39061	11747.942592161185	6
0	39064	11749.35920860771	7
0	39066	11749.387304911166	6
0	39069	11750.609193191527	7
0	39071	11750.822642998139	6
0	39074	11752.524818717352	7
0	39076	11752.802718442199	6
0	39078	11752.910283150348	5
0	39080	11753.514482722298	4
0	39082	11753.986690367064	3
0	39085	11754.319166316501	4
0	39087	11754.897372240455	3
0	39089	11755.022219921395	2
0	39091	11755.330980332181	1
0	39094	11756.123650974631	2
0	39097	11757.673063050806	3
0	39104	11759.304777692211	2
0	39107	11760.944851749613	3
0	39109	11761.583546251329	2
0	39116	11763.376662441193	1
0	39121	11765.354559306386	0
0	39124	11766.124539606682	1
0	39126	11766.936356506097	0
0	39129	11767.840207382887	1
0	39132	11769.221295358464	2
0	39134	11770.382833231153	1
0	39136	11770.504133990191	0
0	39139	11771.012318302728	1
0	39141	11771.702684337923	0
0	39144	11772.778638353795	1
0	39146	11772.869849040254	0
0	39149	11774.527335203476	1
0	39151	11775.207327887167	0
0	39154	11776.090679941922	1
0	39157	11777.659596676603	2
0	39159	11777.953177109245	1
0	39163	11778.632320500862	0
0	39166	11778.941727404147	1
0	39168	11779.097874758769	0
0	39181	11783.313084521927	1
0	39183	11783.31857828494	0
0	39200	11788.403636280299	1
0	39203	11790.359255294167	2
0	39205	11790.634432428822	1
0	39207	11791.469455092788	0
0	39220	11795.458571247421	1
0	39222	11795.555327896877	0
0	39230	11798.850633841976	1
0	39233	11800.666324381194	2
0	39236	11802.043481135405	3
0	39239	11803.530230353623	4
0	39242	11804.989667919315	5
0	39244	11805.177702592332	4
0	39247	11806.458628919944	5
0	39252	11809.617700511096	4
0	39255	11809.947868359126	5
0	39257	11810.769212980976	4
0	39259	11811.652288012683	3
0	39262	11811.913981810063	4
0	39264	11811.939808847961	3
0	39269	11813.436960383542	4
0	39271	11814.002313447569	3
0	39274	11814.815088425614	4
0	39276	11815.945450408782	3
0	39278	11816.031398542267	2
0	39283	11816.188378333338	3
0	39285	11816.977541914123	2
0	39287	11817.356680017516	1
0	39290	11817.696033796147	2
0	39292	11817.921891256175	1
0	39294	11818.270337275957	0
0	39334	11831.005752505586	1
0	39336	11831.176705705304	0
0	39347	11835.301033793427	1
0	39349	11836.985123408896	0
0	39357	11839.165859005451	1
0	39359	11839.583224751131	0
0	39379	11846.080550981163	1
0	39381	11846.635509904554	0
0	39384	11847.826905574313	1
0	39386	11848.914746870348	0
0	39389	11849.115765689536	1
0	39391	11849.167230947695	0
0	39396	11850.415767257511	1
0	39399	11852.10555362258	2
0	39401	11852.421709670125	1
0	39409	11856.18775418818	0
0	39415	11858.995979705304	1
0	39418	11860.90243859034	2
0	39427	11862.405091004669	3
0	39429	11863.653916085006	2
0	39432	11864.226059801168	3
0	39434	11865.353040594687	2
0	39437	11866.039094520956	3
0	39439	11866.253170615357	2
0	39441	11866.890681195039	1
0	39444	11867.637249875664	2
0	39446	11868.294356413979	1
0	39448	11868.394510514917	0
0	39451	11868.947592206522	1
0	39453	11869.408752788916	0
0	39456	11870.32183069907	1
0	39458	11871.306262969886	0
0	39461	11872.080526859908	1
0	39466	11873.562400598674	2
0	39471	11875.368149932324	3
0	39474	11876.751317631676	4
0	39479	11877.969598147868	5
0	39481	11878.745469034988	4
0	39483	11879.173737665967	3
0	39486	11879.342518858648	4
0	39488	11880.397355274821	3
0	39493	11881.227153976857	4
0	39496	11882.502710046283	5
0	39498	11882.804045122197	4
0	39501	11883.95336818084	5
0	39503	11884.500791572438	4
0	39513	11887.418863745815	5
0	39515	11888.911846496497	4
0	39518	11889.389188698902	5
0	39520	11890.783505255658	4
0	39523	11891.370176184586	5
0	39530	11893.337419526315	6
0	39532	11894.060085829244	5
0	39535	11894.848704808055	6
0	39540	11896.536025064847	7
0	39542	11896.850525487022	6
0	39544	11897.242294610159	5
0	39546	11897.903244419557	4
0	39549	11898.268869139476	5
0	39560	11900.576913857622	4
0	39562	11900.88866634398	3
0	39565	11901.326653658262	4
0	39567	11901.767762120195	3
0	39569	11902.053340544406	2
0	39571	11902.852928747865	1
0	39574	11903.067279224506	2
0	39577	11904.409037878586	3
0	39580	11906.056155016867	4
0	39582	11906.421776407284	3
0	39584	11907.226574133646	2
0	39587	11907.972320224007	3
0	39590	11909.648752111976	4
0	39597	11911.163146785122	5
0	39599	11911.53702771199	4
0	39604	11912.668805052374	5
0	39609	11914.130038831417	6
0	39611	11914.416409324183	5
0	39613	11915.036335339618	4
0	39616	11915.626450949569	5
0	39618	11916.019162146007	4
0	39621	11917.34217909876	5
0	39623	11917.440269541879	4
0	39630	11919.890750249825	3
0	39633	11920.041764769738	4
0	39636	11921.570655226742	5
0	39638	11922.965140998066	4
0	39641	11923.279143790563	5
0	39643	11923.70807133745	4
0	39645	11924.396553182981	3
0	39648	11924.667042257858	4
0	39653	11926.186227374559	5
0	39655	11927.499446853319	4
0	39657	11927.560953048247	3
0	39659	11927.780684268308	2
0	39666	11929.137691160706	1
0	39669	11929.664210483094	2
0	39671	11930.308559834775	1
0	39676	11931.64938316833	2
0	39683	11934.319895696993	1
0	39685	11935.179935149207	0
0	39688	11935.353193094989	1
0	39690	11935.620443309973	0
0	39708	11941.261861755176	1
0	39710	11941.440987806631	0
0	39722	11944.487862382679	1
0	39724	11945.140329541185	0
0	39779	11961.015307220667	1
0	39781	11961.161254849265	0
0	39786	11962.266255647912	1
0	39788	11962.64409103038	0
0	39796	11965.559920593388	1
0	39798	11966.695346820613	0
0	39801	11967.126642667539	1
0	39803	11968.03390799741	0
0	39821	11972.884800902047	1
0	39823	11973.451729794095	0
0	39829	11975.860769875385	1
0	39831	11975.972556236197	0
0	39846	11980.734452185072	1
0	39849	11982.590895496532	2
0	39851	11983.009372913267	1
0	39854	11984.214606285691	2
0	39856	11985.738564278248	1
0	39859	11986.062917468734	2
0	39864	11987.534948078208	3
0	39866	11987.59387624728	2
0	39868	11988.865628825699	1
0	39870	11989.381048960393	0
0	39891	11996.601969649122	1
0	39893	11996.749153203425	0
0	39896	11998.164516404495	1
0	39898	11998.166836102139	0
0	39908	12001.648998438604	1
0	39910	12001.914468956571	0
0	39937	12008.907890998608	1
0	39939	12009.20195875172	0
0	39964	12017.019868799707	1
0	39967	12018.802684810793	2
0	39972	12020.360115218757	3
0	39974	12021.044761002949	2
0	39977	12022.03605213262	3
0	39980	12023.584389193206	4
0	39985	12025.029629084132	5
0	39992	12026.869509318909	4
0	39994	12026.994415281999	3
0	39999	12028.519295228495	4
0	40001	12028.827764068333	3
0	40005	12030.242660582941	2
0	40008	12030.438737371227	3
0	40010	12030.719894592518	2
0	40012	12030.897835291704	1
0	40015	12031.780868084019	2
0	40017	12032.043773102396	1
0	40019	12032.390588706175	0
0	40072	12045.815779831855	1
0	40075	12047.139735376312	2
0	40082	12048.767492358236	3
0	40084	12048.872793976271	2
0	40087	12050.438824144787	3
0	40089	12050.593663246122	2
0	40094	12051.80123854379	1
0	40101	12053.784644693676	0
0	40104	12054.888360220043	1
0	40106	12055.531980541799	0
0	40114	12058.320012793539	1
0	40116	12058.72206398193	0
0	40173	12079.072368081694	1
0	40175	12079.890106566732	0
0	40178	12080.423834747111	1
0	40182	12081.38505863974	0
0	40195	12085.877048518358	1
0	40197	12085.940797794218	0
0	40250	12103.673158977215	1
0	40253	12105.59111874107	2
0	40255	12106.559467204037	1
0	40259	12106.910915788464	0
0	40280	12114.025926350836	1
0	40282	12114.829812949645	0
0	40287	12115.720218631473	1
0	40289	12115.850830809427	0
0	40314	12124.213160401059	1
0	40317	12125.685908206401	2
0	40319	12125.864387701326	1
0	40321	12125.995533061702	0
0	40329	12129.039951664244	1
0	40332	12130.30209645502	2
0	40336	12130.910497125565	1
0	40338	12131.049259610158	0
0	40341	12132.098878167045	1
0	40346	12133.727712117356	2
0	40348	12135.090682888633	1
0	40351	12135.478705161658	2
0	40356	12137.061155685072	3
0	40359	12138.707626854663	4
0	40361	12138.868090805502	3
0	40363	12139.962578534225	2
0	40368	12141.259599694864	1
0	40371	12141.790148570423	2
0	40373	12142.481972397153	1
0	40377	12142.748402731696	0
0	40393	12147.219975796191	1
0	40395	12147.240868851611	0
0	40398	12148.809335050767	1
0	40400	12149.239405976259	0
0	40412	12152.597181731684	1
0	40416	12152.831996655764	0
0	40419	12154.207435330225	1
0	40421	12154.357879600777	0
0	40438	12159.23766513638	1
0	40441	12160.971244565619	2
0	40446	12162.67930035427	3
0	40449	12164.529619831068	4
0	40452	12166.32623898912	5
0	40457	12167.707171154057	6
0	40461	12168.432706438062	5
0	40463	12168.914780887149	4
0	40466	12169.56139757823	5
0	40469	12171.538186799398	6
0	40471	12172.362593301372	5
0	40474	12172.924066230318	6
0	40476	12173.013715324094	5
0	40478	12173.048422391377	4
0	40481	12174.284934714472	5
0	40486	12175.733539056068	6
0	40488	12176.679157626417	5
0	40491	12177.032837561181	6
0	40493	12177.211899243917	5
0	40495	12177.27222850232	4
0	40497	12177.501058276523	3
0	40500	12178.852356778307	4
0	40504	12179.246765651235	3
0	40507	12180.779171667842	4
0	40509	12180.787523561456	3
0	40511	12182.062166559196	2
0	40519	12184.576370022854	3
0	40521	12184.589084192224	2
0	40523	12186.048023377503	1
0	40526	12186.310795945337	2
0	40528	12186.723436464253	1
0	40530	12187.072655321463	0
0	40578	12202.476110076381	1
0	40581	12204.056565280853	2
0	40584	12205.648203805125	3
0	40587	12206.880004977285	4
0	40589	12206.913011638236	3
0	40591	12207.168169848902	2
0	40593	12207.66110347317	1
0	40595	12208.087233942586	0
0	40642	12222.657715980001	1
0	40644	12223.31618952999	0
0	40647	12224.19619972188	1
0	40650	12225.937386409975	2
0	40653	12227.682907401248	3
0	40656	12228.887426112256	4
0	40658	12228.894308969366	3
0	40664	12232.431545891835	4
0	40666	12233.589691341237	3
0	40668	12233.900225147052	2
0	40674	12235.522513041122	3
0	40676	12236.533476375861	2
0	40678	12237.113416463695	1
0	40681	12237.187790178916	2
0	40683	12238.351354229325	1
0	40685	12238.550302752542	0
0	40688	12238.680005664787	1
0	40691	12240.619540385379	2
0	40693	12241.568166330406	1
0	40695	12241.891203924825	0
0	40698	12241.940438641271	1
0	40701	12243.493018445595	2
0	40705	12244.540953825065	1
0	40708	12244.996048206872	2
0	40710	12245.604055124938	1
0	40712	12246.019761695242	0
0	40715	12246.567596987485	1
0	40718	12248.501618235967	2
0	40722	12249.7640490604	1
0	40724	12250.113400116042	0
0	40727	12250.247107508256	1
0	40729	12250.589428730883	0
0	40747	12257.072673986703	1
0	40753	12260.196413770169	2
0	40755	12260.23269279273	1
0	40757	12261.103656409728	0
0	40760	12261.775569531359	1
0	40762	12263.12223417695	0
0	40765	12263.514039444588	1
0	40767	12264.288085035524	0
0	40770	12264.726269290633	1
0	40772	12265.697722253354	0
0	40775	12266.010408814661	1
0	40777	12266.502391045857	0
0	40780	12267.621512269638	1
0	40782	12267.735635698955	0
0	40790	12271.047700751982	1
0	40792	12272.711931797293	0
0	40805	12276.674761120453	1
0	40808	12278.396246643587	2
0	40810	12279.114731829803	1
0	40813	12279.79072143644	2
0	40815	12280.710758987276	1
0	40820	12281.787871340885	2
0	40828	12284.900375997125	3
0	40831	12286.24135289885	4
0	40833	12286.522046197657	3
0	40835	12286.639104076374	2
0	40837	12287.211933046421	1
0	40843	12289.317247105426	2
0	40848	12291.260610528242	1
0	40850	12291.427308377098	0
0	40853	12292.040784408933	1
0	40858	12293.448215734808	2
0	40861	12295.080120275205	3
0	40863	12296.311791799146	2
0	40866	12296.911733966542	3
0	40868	12297.3454722931	2
0	40870	12298.353560753547	1
0	40873	12298.777471763489	2
0	40875	12300.319482630035	1
0	40878	12300.405233085376	2
0	40885	12301.989443951693	3
0	40888	12303.413734346103	4
0	40892	12303.777385347859	3
0	40894	12303.938748181826	2
0	40897	12304.787420386296	3
0	40901	12305.410893653584	2
0	40904	12306.344965781864	3
0	40906	12306.40369981989	2
0	40909	12308.233492698554	3
0	40911	12309.59775354451	2
0	40914	12309.884738935191	3
0	40916	12310.701073729198	2
0	40921	12311.310504450869	3
0	40923	12311.46507713789	2
0	40925	12311.993695837718	1
0	40928	12312.96758294854	2
0	40932	12313.693851488931	1
0	40934	12314.179413292205	0
0	40937	12314.911517712881	1
0	40939	12316.150724679911	0
0	40942	12316.254745341127	1
0	40944	12316.56144592388	0
0	40972	12325.366067645174	1
0	40975	12327.084621625986	2
0	40977	12327.168585972206	1
0	40979	12328.109309219412	0
0	40987	12330.625388295796	1
0	40992	12333.370744396612	0
0	40995	12333.925106975098	1
0	40998	12335.907530475815	2
0	41001	12337.624551794526	3
0	41003	12338.97654327126	2
0	41006	12339.562240346183	3
0	41008	12339.861086611659	2
0	41010	12339.908188026471	1
0	41015	12341.417229256627	2
0	41018	12342.75139475431	3
0	41020	12342.803025044414	2
0	41025	12344.226708897983	3
0	41030	12345.700070375239	4
0	41033	12347.076734475268	5
0	41035	12347.544287207205	4
0	41037	12347.814401109513	3
0	41040	12348.789395927301	4
0	41042	12349.654132921362	3
0	41047	12350.926895827895	2
0	41049	12350.977135771114	1
0	41051	12352.165124745115	0
0	41059	12354.241067518888	1
0	41061	12354.35191291576	0
0	41074	12359.125472036971	1
0	41076	12360.00735083739	0
0	41079	12360.981840430049	1
0	41081	12362.346034445247	0
0	41089	12364.357256178965	1
0	41096	12365.969123168138	2
0	41098	12366.22089089345	1
0	41100	12366.923661088113	0
0	41145	12381.326578928006	1
0	41148	12382.663828919304	2
0	41153	12384.973850586744	1
0	41155	12385.597274831328	0
0	41209	12401.441413424571	1
0	41211	12401.943960023039	0
0	41257	12417.509547762421	1
0	41262	12419.185454991308	2
0	41264	12419.511698166363	1
0	41266	12420.156448048043	0
0	41274	12422.436819526215	1
0	41276	12422.845197937334	0
0	41294	12428.688770931248	1
0	41296	12429.403286901764	0
0	41309	12434.3178522725	1
0	41312	12435.857187086192	2
0	41315	12437.153690946137	3
0	41318	12439.085804726405	4
0	41321	12440.730973141117	5
0	41323	12441.130034148746	4
0	41325	12441.773201364371	3
0	41328	12442.3645709718	4
0	41330	12443.227898217538	3
0	41333	12443.576852486132	4
0	41336	12445.037984466588	5
0	41339	12446.468488825334	6
0	41341	12446.950069443361	5
0	41344	12447.919283129496	6
0	41347	12449.608889552241	7
0	41352	12451.047431608325	8
0	41357	12452.724657583272	9
0	41360	12454.423816058261	10
0	41365	12456.352267995512	11
0	41368	12457.952692526987	12
0	41370	12458.498516912177	11
0	41375	12459.341866634263	12
0	41380	12461.472374148175	11
0	41383	12462.05933094289	12
0	41385	12463.088704419037	11
0	41388	12463.631778454071	12
0	41391	12465.075054957753	13
0	41397	12466.087776766282	12
0	41400	12466.982414335048	13
0	41402	12467.100136089204	12
0	41404	12468.321684621151	11
0	41409	12469.370011059829	10
0	41412	12470.291017449869	11
0	41414	12471.925200407794	10
0	41417	12472.275633970497	11
0	41419	12473.507570523604	10
0	41422	12473.825415491907	11
0	41424	12473.906185987983	10
0	41427	12475.680416814087	11
0	41430	12477.307129011897	12
0	41434	12478.889742266053	11
0	41439	12479.190575156582	12
0	41443	12479.885081110991	11
0	41445	12480.16840780367	10
0	41448	12480.497432244045	11
0	41450	12480.838675356434	10
0	41456	12484.084091780183	11
0	41458	12484.88526358812	10
0	41460	12484.93969514722	9
0	41463	12485.560110872273	10
0	41465	12485.963372263461	9
0	41467	12486.371042695463	8
0	41470	12486.802958120067	9
0	41473	12488.797960784134	10
0	41475	12488.946635978116	9
0	41477	12489.006894144857	8
0	41479	12489.44431101723	7
0	41482	12490.361611455713	8
0	41484	12491.15482956563	7
0	41487	12492.176422194426	8
0	41489	12493.476300534063	7
0	41492	12493.552477498946	8
0	41497	12494.798505593871	9
0	41500	12496.723048700241	10
0	41502	12496.79055224945	9
0	41504	12497.060661324781	8
0	41509	12499.114306092173	7
0	41513	12500.170030768146	6
0	41516	12500.234032784624	7
0	41518	12501.000618685902	6
0	41523	12501.764506398495	5
0	41526	12503.360459464824	6
0	41533	12504.723542656226	7
0	41535	12505.159572978154	6
0	41537	12505.756374007281	5
0	41539	12506.483380446119	4
0	41542	12506.633093346504	5
0	41544	12506.84802320725	4
0	41546	12507.271812611419	3
0	41551	12508.039620231872	4
0	41553	12508.438197850903	3
0	41555	12508.724902815778	2
0	41562	12509.628377166612	3
0	41564	12509.787850154207	2
0	41567	12511.005266048422	3
0	41570	12512.656258166617	4
0	41572	12513.263995844693	3
0	41574	12513.856734547323	2
0	41577	12514.419392299688	3
0	41579	12515.546279515665	2
0	41582	12516.405406989938	3
0	41584	12517.27853391912	2
0	41587	12518.310765373556	3
0	41589	12518.599852753404	2
0	41591	12518.717266336849	1
0	41593	12519.888733700087	0
0	41596	12520.032052347099	1
0	41598	12520.339470035805	0
0	41601	12521.735599998233	1
0	41604	12523.278210008551	2
0	41606	12523.483247255956	1
0	41608	12524.403138663398	0
0	41621	12528.170415813138	1
0	41623	12529.319515774947	0
0	41626	12529.592398202081	1
0	41630	12530.57393331494	0
0	41633	12531.406616966833	1
0	41635	12531.478280710211	0
0	41658	12539.832430866022	1
0	41660	12539.839525414925	0
0	41665	12541.595129704137	1
0	41669	12542.572648100205	0
0	41698	12550.349262280238	1
0	41700	12551.46711599953	0
0	41750	12566.26165125988	1
0	41755	12567.979892497729	2
0	41758	12569.271505272794	3
0	41760	12569.519740430808	2
0	41763	12570.730889670211	3
0	41766	12571.998656499419	4
0	41769	12573.347894878905	5
0	41772	12575.287639106098	6
0	41775	12576.772495150599	7
0	41777	12576.900682871344	6
0	41779	12577.622820180564	5
0	41781	12578.326185556146	4
0	41784	12578.698011404309	5
0	41791	12580.262734840843	6
0	41793	12581.045194901466	5
0	41795	12581.649255051452	4
0	41798	12581.869732362065	5
0	41800	12582.154540846592	4
0	41803	12583.233229130167	5
0	41807	12584.320838644327	4
0	41810	12584.554641304198	5
0	41812	12586.085256306913	4
0	41815	12586.199413794312	5
0	41817	12586.220692057885	4
0	41822	12587.98142461468	3
0	41825	12588.801476120236	4
0	41827	12589.343963356359	3
0	41830	12590.062833542782	4
0	41832	12591.108586239186	3
0	41834	12591.416047903462	2
0	41837	12592.00904819801	3
0	41840	12593.776973729427	4
0	41842	12594.103770634855	3
0	41845	12595.126575020733	4
0	41848	12596.38854003496	5
0	41850	12596.608804635323	4
0	41852	12596.968892782202	3
0	41855	12597.956869017552	4
0	41857	12598.451708001836	3
0	41860	12599.476558044586	4
0	41862	12600.089923146859	3
0	41865	12600.679772652719	4
0	41867	12601.426657163249	3
0	41872	12602.669868014227	4
0	41876	12603.13650073193	3
0	41878	12603.792691213292	2
0	41882	12603.916885968387	1
0	41885	12604.500392858531	2
0	41887	12605.551038622631	1
0	41889	12605.701977942212	0
0	41894	12606.291786664012	1
0	41896	12606.708865311923	0
0	41914	12612.8303303853	1
0	41916	12613.356982930173	0
0	41919	12614.689234885233	1
0	41922	12616.57692298315	2
0	41925	12618.295023367773	3
0	41927	12618.63421342797	2
0	41930	12619.691352393883	3
0	41932	12620.139419457446	2
0	41935	12621.565920612993	3
0	41938	12623.335732889021	4
0	41940	12623.992354011766	3
0	41943	12625.018315742197	4
0	41945	12626.078304292147	3
0	41948	12626.721930065783	4
0	41952	12627.092887291858	3
0	41954	12627.66774738128	2
0	41956	12627.751356574108	1
0	41958	12628.067612578434	0
0	41961	12628.69350597992	1
0	41963	12629.791470411048	0
0	41985	12635.44865175284	1
0	41989	12636.521152939738	0
0	41992	12636.741683704998	1
0	41995	12638.397173448499	2
0	41998	12639.609392277743	3
0	42000	12639.693041105676	2
0	42002	12639.70052639642	1
0	42005	12641.228747254829	2
0	42010	12642.54820596281	3
0	42012	12642.812728373469	2
0	42015	12643.750450215522	3
0	42017	12643.800098449559	2
0	42019	12644.076957922662	1
0	42022	12645.360116599347	2
0	42025	12646.595230129767	3
0	42030	12648.288218940002	2
0	42032	12648.382731044895	1
0	42035	12649.844737442989	2
0	42038	12651.362901885841	3
0	42040	12651.55562493347	2
0	42042	12652.167368269091	1
0	42044	12652.176724320513	0
0	42091	12668.636518068272	1
0	42093	12669.067218456842	0
0	42179	12690.552674178068	1
0	42184	12692.526555580601	0
0	42187	12693.557040398229	1
0	42189	12694.08251924285	0
0	42192	12695.336064689268	1
0	42194	12696.548537032725	0
0	42197	12697.013982898031	1
0	42199	12697.78845335384	0
0	42204	12698.31859809145	1
0	42206	12699.837185218021	0
0	42209	12700.259177221019	1
0	42211	12700.476248281596	0
0	42214	12701.827159538899	1
0	42217	12703.153852246922	2
0	42220	12704.673835858178	3
0	42223	12706.185909740288	4
0	42225	12706.556272479514	3
0	42227	12706.622448313731	2
0	42230	12708.16484814718	3
0	42233	12709.969639901478	4
0	42236	12711.285616563108	5
0	42239	12712.848910262469	6
0	42244	12714.742680768702	7
0	42246	12714.75400071497	6
0	42248	12714.905843026743	5
0	42250	12716.460363694474	4
0	42253	12716.584947951358	5
0	42255	12716.60468521872	4
0	42257	12717.307871715586	3
0	42260	12718.026320236582	4
0	42263	12719.68438567299	5
0	42265	12720.761966642815	4
0	42270	12721.51451993737	5
0	42272	12721.969522968195	4
0	42275	12723.162049685638	5
0	42279	12724.387179807588	4
0	42282	12724.58771354727	5
0	42285	12725.93662414256	6
0	42287	12726.312579483251	5
0	42289	12726.879097466879	4
0	42291	12726.934053722602	3
0	42294	12727.627093892949	4
0	42296	12728.289897509356	3
0	42300	12729.502450941402	2
0	42305	12730.910530626643	1
0	42307	12731.136289393182	0
0	42310	12731.154666280778	1
0	42317	12733.396594253852	0
0	42335	12739.466499235698	1
0	42337	12739.597527541959	0
0	42345	12743.072987612181	1
0	42347	12743.6902615722	0
0	42352	12744.869589904354	1
0	42355	12746.091330949062	2
0	42358	12747.788552776942	3
0	42360	12749.029834656755	2
0	42363	12749.519688743571	3
0	42365	12750.527504180025	2
0	42368	12750.9776775651	3
0	42370	12751.04423560066	2
0	42373	12752.631675648535	3
0	42375	12753.717771310743	2
0	42378	12754.116576008344	3
0	42380	12754.128464023911	2
0	42382	12755.946152469717	1
0	42385	12756.044482592897	2
0	42387	12757.051190412806	1
0	42390	12757.912932956436	2
0	42392	12758.676598743431	1
0	42394	12758.865351928315	0
0	42434	12770.841113470153	1
0	42436	12771.219167100863	0
0	42441	12772.284638999247	1
0	42443	12774.059400032429	0
0	42446	12774.25307951405	1
0	42448	12775.33272322365	0
0	42458	12777.424768173167	1
0	42460	12778.211393613706	0
0	42463	12778.865938029097	1
0	42465	12780.409571524991	0
0	42468	12780.507133509622	1
0	42474	12783.508842386523	2
0	42476	12784.647366309692	1
0	42479	12785.245138521896	2
0	42482	12787.073258692802	3
0	42484	12787.848670465134	2
0	42486	12787.985784354934	1
0	42489	12788.314820324102	2
0	42491	12788.539833632392	1
0	42494	12789.927654347973	2
0	42497	12791.871256872857	3
0	42500	12793.193768268297	4
0	42502	12794.085130783153	3
0	42505	12794.520289052869	4
0	42507	12794.848683185885	3
0	42509	12795.221579737207	2
0	42512	12796.082835839349	3
0	42514	12796.481733540216	2
0	42516	12796.713962300608	1
0	42519	12797.747357439655	2
0	42521	12798.604691307034	1
0	42524	12798.996153183314	2
0	42529	12800.725511052613	1
0	42531	12801.844604073129	0
0	42549	12807.375751895305	1
0	42555	12810.276267326098	2
0	42558	12811.95982252251	3
0	42560	12812.235533417115	2
0	42563	12813.809004606527	3
0	42565	12814.658278405655	2
0	42568	12815.08302582692	3
0	42572	12816.704546622974	2
0	42575	12816.809575554948	3
0	42578	12818.022160767425	4
0	42582	12818.403543995373	3
0	42584	12818.647126139564	2
0	42586	12818.937923447866	1
0	42588	12818.972512154381	0
0	42591	12819.67875697672	1
0	42593	12820.630434136262	0
0	42631	12832.734061632525	1
0	42633	12832.995030734153	0
0	42667	12842.438393871891	1
0	42669	12843.395460716892	0
0	42674	12844.294265267844	1
0	42676	12844.326874203403	0
0	42709	12855.015901797482	1
0	42711	12855.921993078977	0
0	42714	12856.981007251174	1
0	42717	12858.195918725462	2
0	42720	12859.743047714823	3
0	42722	12860.664401078337	2
0	42724	12860.785536237773	1
0	42727	12861.517165415392	2
0	42729	12861.720879231897	1
0	42731	12863.234500578182	0
0	42734	12863.254090644077	1
0	42736	12863.486674789813	0
0	42753	12867.916386627064	1
0	42756	12869.140419360281	2
0	42758	12870.923641853646	1
0	42764	12872.357287424089	2
0	42766	12873.648248089366	1
0	42768	12873.781390594896	0
0	42776	12876.053415999779	1
0	42778	12877.458188102403	0
0	42781	12877.793037114324	1
0	42783	12878.931866328576	0
0	42796	12882.364534712614	1
0	42798	12883.975959138758	0
0	42821	12890.126319023998	1
0	42824	12892.112543108159	2
0	42826	12892.799591795712	1
0	42828	12893.491986608939	0
0	42843	12896.638554474184	1
0	42847	12897.838344326478	0
0	42855	12899.850748625616	1
0	42857	12899.997042450781	0
0	42875	12906.332091699014	1
0	42877	12907.184405349463	0
0	42890	12910.994903296264	1
0	42892	12911.620362152541	0
0	42920	12920.785689486408	1
0	42925	12922.374027965808	2
0	42928	12924.246974815646	3
0	42933	12926.085410275714	4
0	42938	12928.057308542201	5
0	42940	12928.726678903159	4
0	42942	12928.753494914102	3
0	42944	12929.685678136889	2
0	42947	12929.947700842129	3
0	42950	12931.485867267134	4
0	42952	12931.501337561306	3
0	42954	12931.560669488031	2
0	42957	12933.053999782944	3
0	42960	12934.489841000209	4
0	42963	12935.719899321752	5
0	42968	12937.365373769881	4
0	42970	12938.277521787537	3
0	42973	12938.982256755824	4
0	42975	12939.213877864763	3
0	42977	12939.364903327315	2
0	42982	12941.126916755321	1
0	42987	12941.979935038495	2
0	42991	12942.531552634471	1
0	42993	12943.329833302751	0
0	42996	12943.625239525768	1
0	42999	12945.027400185945	2
0	43001	12945.125796146919	1
0	43003	12945.836770815233	0
0	43006	12946.564704293417	1
0	43008	12947.560227093357	0
0	43011	12948.390494790146	1
0	43013	12948.445579014534	0
0	43016	12950.359650496798	1
0	43018	12950.748724672305	0
0	43036	12957.041717052305	1
0	43038	12957.98262106383	0
0	43043	12958.248083934219	1
0	43045	12958.531264802938	0
0	43055	12961.5145781305	1
0	43057	12961.582976550856	0
0	43065	12964.219999439114	1
0	43068	12965.446333793954	2
0	43070	12965.794962532291	1
0	43074	12966.993530034112	0
0	43077	12967.381866845519	1
0	43082	12970.222735304772	0
0	43085	12970.475136182487	1
0	43087	12971.484605175801	0
0	43090	12972.4134094138	1
0	43092	12973.379252934083	0
0	43095	12973.905314389646	1
0	43097	12974.449608197493	0
0	43100	12975.619766866259	1
0	43105	12977.305833480909	2
0	43110	12978.56703773833	3
0	43112	12978.980523186917	2
0	43115	12980.294943356543	3
0	43117	12981.067640394826	2
0	43119	12981.153287568636	1
0	43122	12981.555272973917	2
0	43124	12982.446411538573	1
0	43127	12983.090946102358	2
0	43129	12983.532141769183	1
0	43131	12984.036725636915	0
0	43134	12984.636757203221	1
0	43139	12987.341177395226	0
0	43142	12987.787008024968	1
0	43144	12988.737752851986	0
0	43147	12989.410427820712	1
0	43149	12990.021854090517	0
0	43162	12994.295180712296	1
0	43165	12995.859830540819	2
0	43170	12997.79399548511	3
0	43172	12998.080289194775	2
0	43174	12999.40129030567	1
0	43177	12999.479110307088	2
0	43180	13001.16287556461	3
0	43183	13002.427902391208	4
0	43185	13003.070682463747	3
0	43188	13003.986201751819	4
0	43191	13005.76956180132	5
0	43193	13006.538180987512	4
0	43195	13006.907270683142	3
0	43198	13007.118310221126	4
0	43201	13008.444763948423	5
0	43203	13009.622056339914	4
0	43206	13010.387616918077	5
0	43209	13012.005351078724	6
0	43211	13012.139136568286	5
0	43213	13013.039671203128	4
0	43215	13013.684137664578	3
0	43217	13013.858216093044	2
0	43220	13013.881405720142	3
0	43222	13014.55989865217	2
0	43225	13015.479377944236	3
0	43227	13015.620459476514	2
0	43229	13015.648433102542	1
0	43231	13015.84924311604	0
0	43251	13021.970048471009	1
0	43254	13023.944980448885	2
0	43256	13024.219111463935	1
0	43258	13024.670325991709	0
0	43261	13025.644728920451	1
0	43263	13026.356132237194	0
0	43271	13028.683810117683	1
0	43273	13029.368172484455	0
0	43281	13031.358783057174	1
0	43283	13032.183721854658	0
0	43308	13039.237177637992	1
0	43310	13040.382937833457	0
0	43315	13041.144090493237	1
0	43317	13042.078774502031	0
0	43328	13045.818910305415	1
0	43330	13046.094916647825	0
0	43333	13047.385533888292	1
0	43335	13048.534432650422	0
0	43338	13048.742405752119	1
0	43340	13049.155923614057	0
0	43355	13053.388681197566	1
0	43357	13055.054253591405	0
0	43360	13055.091783102815	1
0	43362	13056.048253459708	0
0	43410	13071.886966601598	1
0	43412	13072.113138277039	0
0	43435	13079.667575267355	1
0	43437	13080.734968088348	0
0	43440	13081.051975397605	1
0	43444	13081.404287535555	0
0	43454	13083.8863555657	1
0	43456	13084.485280656	0
0	43466	13086.584606548982	1
0	43470	13087.277687793137	0
0	43473	13088.202389143804	1
0	43475	13088.823269163855	0
0	43488	13093.378266142146	1
0	43490	13093.697027890543	0
0	43498	13096.448343510949	1
0	43501	13098.10919215458	2
0	43503	13099.31392713815	1
0	43505	13099.380710818573	0
0	43508	13099.656193699897	1
0	43510	13100.205513485264	0
0	43529	13104.195397493266	1
0	43536	13106.152279369556	2
0	43538	13106.278767800956	1
0	43543	13107.947684665792	2
0	43545	13109.343768347599	1
0	43547	13109.58140385043	0
0	43550	13109.882519601308	1
0	43552	13110.10647025514	0
0	43589	13121.91059642753	1
0	43591	13123.128967187448	0
0	43594	13123.810494270198	1
0	43596	13123.855093936067	0
0	43609	13128.387749790051	1
0	43611	13128.568569035471	0
0	43614	13129.675532517978	1
0	43616	13130.001441260376	0
0	43619	13131.055626874813	1
0	43622	13132.523855861672	2
0	43624	13133.492234066039	1
0	43627	13133.928854317614	2
0	43629	13134.956942782647	1
0	43632	13135.665501687327	2
0	43634	13135.772523131176	1
0	43636	13136.091735166858	0
0	43675	13150.062608122104	1
0	43679	13150.299176158865	0
0	43716	13160.478217932418	1
0	43719	13162.461145970434	2
0	43721	13162.515467872909	1
0	43723	13162.587709743497	0
0	43760	13173.970580931402	1
0	43762	13175.247761890184	0
0	43765	13175.453460755593	1
0	43767	13175.474310884993	0
0	43785	13181.27000474634	1
0	43790	13182.527969861798	2
0	43792	13182.79745052778	1
0	43794	13183.297091970588	0
0	43797	13183.951826931372	1
0	43799	13184.624678253358	0
0	43802	13185.180742050357	1
0	43807	13186.401921382569	2
0	43811	13187.089596817105	1
0	43816	13188.356896656797	0
0	43829	13192.327502951608	1
0	43831	13193.403609664901	0
0	43854	13200.242160031967	1
0	43856	13200.529111464835	0
0	43925	13221.742781394556	1
0	43929	13221.924960177592	0
0	43932	13223.247961971931	1
0	43934	13223.878538983208	0
0	43949	13228.49248062747	1
0	43951	13229.808659324749	0
0	43954	13230.149572668247	1
0	43963	13233.579709216329	0
0	43966	13234.009449765295	1
0	43968	13234.279128981313	0
0	43971	13235.58277435007	1
0	43973	13236.549701548171	0
0	43976	13237.470426903502	1
0	43978	13237.783253889693	0
0	43993	13242.090645095171	1
0	43995	13242.952252995846	0
0	44022	13250.584950380796	1
0	44024	13251.408931161733	0
0	44027	13251.825678544143	1
0	44033	13252.97222114849	0
0	44043	13255.060267010355	1
0	44045	13255.815908001702	0
0	44091	13270.938003239433	1
0	44093	13271.455779779051	0
0	44096	13272.216208147282	1
0	44098	13272.393683835857	0
0	44183	13298.476380529465	1
0	44186	13300.295423763269	2
0	44193	13302.054316996993	3
0	44195	13302.564642108794	2
0	44197	13303.960204903295	1
0	44200	13304.038749529259	2
0	44207	13305.999039853016	3
0	44212	13307.259607260885	4
0	44214	13307.565005259269	3
0	44216	13308.184506537127	2
0	44219	13309.159112016322	3
0	44221	13310.304077070409	2
0	44223	13310.822665491889	1
0	44226	13311.098468834	2
0	44228	13312.789886140306	1
0	44233	13313.855275631233	0
0	44269	13326.395523843939	1
0	44271	13327.418668978466	0
0	44289	13332.706426418225	1
0	44291	13333.576594489807	0
0	44301	13335.541587456527	1
0	44303	13335.613852750121	0
0	44306	13337.412269341971	1
0	44308	13338.526895068669	0
0	44311	13338.967207757223	1
0	44313	13340.707087252949	0
0	44316	13340.75326789974	1
0	44318	13340.86657307648	0
0	44328	13344.435867368828	1
0	44330	13345.30470710018	0
0	44338	13347.369168834413	1
0	44340	13347.449450405115	0
0	44371	13354.744156459929	1
0	44373	13355.720707400516	0
0	44376	13356.049719387875	1
0	44379	13357.967884187051	2
0	44381	13357.96800549928	1
0	44388	13359.609083129861	2
0	44392	13360.416063683219	1
0	44395	13360.844600377814	2
0	44397	13361.724974172025	1
0	44400	13362.19726052268	2
0	44402	13362.820343429303	1
0	44405	13363.945096188435	2
0	44408	13365.221885270836	3
0	44411	13367.105196105899	4
0	44413	13367.592455174009	3
0	44415	13367.661455360789	2
0	44420	13368.548763847934	3
0	44423	13370.509703014256	4
0	44426	13371.715911333287	5
0	44428	13371.970051222223	4
0	44432	13372.927577618923	3
0	44435	13373.711258775206	4
0	44437	13375.070737062969	3
0	44440	13375.448078707816	4
0	44442	13375.665917813536	3
0	44444	13375.683815526099	2
0	44449	13376.973422224099	3
0	44451	13377.409197904629	2
0	44454	13378.837483884419	3
0	44458	13380.160238987523	2
0	44463	13380.673854323501	3
0	44465	13381.921324528546	2
0	44468	13381.990324629309	3
0	44470	13382.14448038254	2
0	44472	13382.523794553315	1
0	44474	13382.526468147602	0
0	44477	13383.817089694577	1
0	44479	13384.058286531159	0
0	44494	13388.529543800863	1
0	44496	13388.795307176196	0
0	44521	13396.53051098867	1
0	44524	13398.040212143982	2
0	44527	13399.367744372437	3
0	44530	13400.948362317706	4
0	44532	13401.063166523557	3
0	44534	13401.208481002703	2
0	44536	13402.462678131027	1
0	44539	13402.904695396895	2
0	44541	13403.089441336161	1
0	44543	13403.622838341363	0
0	44553	13406.213340493502	1
0	44556	13407.792361084023	2
0	44558	13408.522344939035	1
0	44560	13408.556881160504	0
0	44565	13409.074124410772	1
0	44570	13410.764585904614	2
0	44573	13412.180613137432	3
0	44575	13412.802218857121	2
0	44577	13412.877209537044	1
0	44580	13414.163063790113	2
0	44582	13414.166909729793	1
0	44584	13415.39932775673	0
0	44587	13415.667568999924	1
0	44592	13417.734166904025	0
0	44600	13420.127012509876	1
0	44602	13420.273372285688	0
0	44622	13426.949014804536	1
0	44624	13427.636708782182	0
0	44635	13431.787386932248	1
0	44637	13432.478777309163	0
0	44640	13433.399346694933	1
0	44642	13433.981533430004	0
0	44645	13434.777167935321	1
0	44647	13435.433200556078	0
0	44680	13445.982283510106	1
0	44682	13446.278333871074	0
0	44685	13447.771000466334	1
0	44687	13448.862188232525	0
0	44693	13450.368893696206	1
0	44695	13450.84809036241	0
0	44698	13452.185797783757	1
0	44700	13452.556744692792	0
0	44703	13453.755473806175	1
0	44705	13454.143588614142	0
0	44713	13456.780839839044	1
0	44715	13456.830302142331	0
0	44752	13468.568679700444	1
0	44754	13469.576244216415	0
0	44757	13470.233014447453	1
0	44760	13471.476296105261	2
0	44762	13472.375016598471	1
0	44764	13472.676220095171	0
0	44767	13473.201360744077	1
0	44770	13475.131121627639	2
0	44772	13475.555896994986	1
0	44775	13476.568984200831	2
0	44777	13476.74066049452	1
0	44780	13477.945719252552	2
0	44782	13478.202533753334	1
0	44785	13479.364192175145	2
0	44788	13480.590345844838	3
0	44791	13482.253252464931	4
0	44794	13483.779267722953	5
0	44796	13483.783851022866	4
0	44801	13485.587010882076	5
0	44806	13486.917425081533	6
0	44808	13487.872744112426	5
0	44810	13488.547989067741	4
0	44813	13488.737509108361	5
0	44816	13490.046008323718	6
0	44818	13490.247112762262	5
0	44820	13490.620111739223	4
0	44823	13491.665075202126	5
0	44825	13491.968199900528	4
0	44828	13493.386163876977	5
0	44830	13493.621893808872	4
0	44833	13494.95899091645	5
0	44835	13495.936460503278	4
0	44837	13496.566946785332	3
0	44840	13496.624856982593	4
0	44842	13497.834148319438	3
0	44844	13498.201625969378	2
0	44847	13498.340857524451	3
0	44850	13500.038510698851	4
0	44852	13500.152783556732	3
0	44854	13500.601189318902	2
0	44857	13501.55300042073	3
0	44859	13502.333321484647	2
0	44861	13503.109482418831	1
0	44864	13503.269839480359	2
0	44871	13504.56065148006	3
0	44873	13505.303688732105	2
0	44875	13505.59699634543	1
0	44877	13505.950403482592	0
0	44880	13506.5378559517	1
0	44885	13508.52657169516	2
0	44887	13509.175508147325	1
0	44889	13510.219843863704	0
0	44892	13510.24934469613	1
0	44894	13510.567791805136	0
0	44907	13515.56850657298	1
0	44909	13516.093057096142	0
0	44917	13518.89237226865	1
0	44923	13522.392790095533	2
0	44925	13523.16464813671	1
0	44928	13523.747853990855	2
0	44930	13525.044131757284	1
0	44933	13525.143755875925	2
0	44935	13525.878924337564	1
0	44938	13526.911461009855	2
0	44940	13528.466929484795	1
0	44942	13528.664455303418	0
0	44945	13528.772675658228	1
0	44947	13528.955607596654	0
0	44950	13530.689416157479	1
0	44952	13531.682945033035	0
0	44955	13531.953938719096	1
0	44957	13532.145953213954	0
0	44960	13533.861067288393	1
0	44964	13535.643878662041	0
0	44967	13535.712384161563	1
0	44969	13535.903072024683	0
0	44972	13537.612017420703	1
0	44974	13538.491270181892	0
0	44984	13540.828719830351	1
0	44988	13542.158994885165	0
0	44991	13542.517954207236	1
0	44993	13542.753130215849	0
0	45022	13550.918754136586	1
0	45024	13551.034332264853	0
0	45032	13554.114788696566	1
0	45034	13555.305058234652	0
0	45054	13560.838331601792	1
0	45058	13561.668405283668	0
0	45072	13566.617953108274	1
0	45079	13568.201571705774	2
0	45083	13568.806806079373	1
0	45085	13569.049555099021	0
0	45122	13579.974138763011	1
0	45124	13580.390440672255	0
0	45146	13585.758054868341	1
0	45149	13587.066510906652	2
0	45151	13588.470886747404	1
0	45155	13588.802712665436	0
0	45158	13588.99329168389	1
0	45160	13589.269844524456	0
0	45163	13590.357505510956	1
0	45165	13591.180313370668	0
0	45168	13591.583702628337	1
0	45170	13592.909361922644	0
0	45175	13593.212871749535	1
0	45177	13594.380581620146	0
0	45180	13594.678799137682	1
0	45182	13596.36576882093	0
0	45225	13609.280572374187	1
0	45227	13609.795486543786	0
0	45237	13612.087026518419	1
0	45242	13613.449475149273	2
0	45244	13613.798135395191	1
0	45254	13616.747854648365	2
0	45256	13617.199276453393	1
0	45258	13617.425005895702	0
0	45261	13618.14844322039	1
0	45263	13618.781799015669	0
0	45291	13627.411850349998	1
0	45296	13629.860479131462	0
0	45299	13630.036343015565	1
0	45302	13631.279942689112	2
0	45307	13633.446180629968	1
0	45309	13633.656622207714	0
0	45371	13652.288062221763	1
0	45373	13652.91050767176	0
0	45379	13655.13529410476	1
0	45381	13655.950777173907	0
0	45399	13660.828179664185	1
0	45406	13662.274925495978	0
0	45411	13663.906483696421	1
0	45413	13664.003216124189	0
0	45473	13679.837139275502	1
0	45475	13680.1526298938	0
0	45478	13681.458535143379	1
0	45480	13682.187682956496	0
0	45496	13687.312695961464	1
0	45498	13688.064580146013	0
0	45501	13688.66433547588	1
0	45503	13689.462387043898	0
0	45540	13699.441213797422	1
0	45542	13700.714350136584	0
0	45545	13701.204932786168	1
0	45547	13702.273970242625	0
0	45550	13703.12366943212	1
0	45552	13703.370301857953	0
0	45560	13706.853225377218	1
0	45562	13708.317904924611	0
0	45565	13708.715362609939	1
0	45567	13708.839573863571	0
0	45580	13712.766550430113	1
0	45585	13714.314423020387	2
0	45587	13715.319321693576	1
0	45590	13715.568383483047	2
0	45592	13715.784588821192	1
0	45594	13716.628586368905	0
0	45609	13720.378466377052	1
0	45611	13721.823269999947	0
0	45614	13721.953274835291	1
0	45616	13722.096248661042	0
0	45626	13724.953093457239	1
0	45630	13725.51359828391	0
0	45656	13735.689152372645	1
[...]
6	37410	11239.873331061468	387
6	37493	11268.097918200413	388
6	37678	11321.146006777769	389
6	37793	11360.222137577943	390
6	38066	11443.967831085451	391
6	38310	11516.039282011767	392
6	38713	11643.053929089774	393
6	38742	11654.357703966469	394
6	38884	11693.571646406675	395
6	39010	11730.372925249616	396
6	39100	11759.057256694926	397
6	39112	11762.555425318764	398
6	39281	11816.128114398207	399
6	39355	11838.37732088871	400
6	39394	11849.480235014262	401
6	39469	11874.413361671357	402
6	39506	11885.162601350042	403
6	39593	11910.295831131073	404
6	39602	11912.617202515662	405
6	39784	11962.000784550893	406
6	39889	11995.713615816789	407
6	39947	12010.279716364916	408
6	40022	12032.86465789339	409
6	40049	12040.257713604637	410
6	40070	12045.417419615363	411
6	40344	12132.267307043403	412
6	40410	12151.926589560794	413
6	40484	12175.199451325393	414
6	40613	12212.704914398392	415
6	40704	12243.536495982534	416
6	40818	12281.051741659052	417
6	40900	12305.211365290103	418
6	41013	12341.212378397846	419
6	41057	12354.007073998129	420
6	41190	12394.939510471457	421
6	41260	12418.527845868225	422
6	41394	12465.756720578264	423
6	41529	12503.905710795257	424
6	41531	12504.1118965181	425
6	41725	12556.946897968231	426
6	41875	12602.776242308455	427
6	42008	12641.715036173324	428
6	42122	12675.809016008464	429
6	42175	12690.053876243668	430
6	42202	12698.120508848688	431
6	42429	12768.911268691866	432
6	42741	12864.462922782663	433
6	42923	12921.531501461236	434
6	43073	12965.830245880337	435
6	43301	13035.807773457715	436
6	43731	13163.861426607252	437
6	43775	13177.00752773303	438
6	43957	13230.857795778844	439
6	44010	13245.995064908343	440
6	44065	13261.363219937238	441
6	44191	13301.188361142846	442
6	44345	13348.097161237413	443
6	44391	13360.28444765725	444
6	44447	13376.220489938122	445
6	44723	13458.952290549634	446
6	45005	13544.58686151215	447
6	45075	13566.969249567169	448
6	45154	13588.542849031244	449
6	45173	13593.086201193043	450
6	45220	13607.617654339661	451
6	45250	13616.094113883672	452
6	45322	13636.665653599091	453
6	45409	13662.364126180103	454
6	45416	13664.659908202903	455
6	45583	13713.430796412934	456
6	45745	13762.645428901456	457
6	45752	13764.478382581827	458
6	45787	13772.54690508451	459
6	45817	13780.77555541149	460
6	45908	13812.588690663672	461
6	46001	13835.392984077806	462
6	46006	13837.267177913386	463
6	46082	13858.552331005606	464
6	46314	13932.475394064391	465
6	46905	14115.199500633066	466
6	47008	14143.653150580575	467
6	47010	14143.992988343884	468
6	47012	14144.225112558818	469
6	47295	14233.387374520814	470
6	47388	14260.749822116588	471
6	47722	14358.389153826646	472
6	47799	14381.804701832598	473
6	47901	14410.420356853449	474
6	47920	14414.88331660738	475
6	47922	14415.659977214393	476
6	48122	14475.505478541197	477
6	48152	14485.23209175088	478
6	48262	14516.908801679714	479
6	48292	14525.201768391154	480
6	48345	14544.416292480459	481
6	48601	14614.980903665153	482
6	48609	14616.842047811216	483
6	48655	14633.318111223073	484
6	49039	14747.052295162705	485
6	49276	14815.129210963102	486
6	49349	14836.937674251347	487
6	49416	14859.08566898262	488
6	49440	14864.138935412494	489
6	49523	14889.588515733777	490
6	49633	14920.718849518953	491
6	49949	15015.10879619195	492
6	50036	15038.338760468244	493
6	50100	15060.120101218269	494
6	50144	15073.856698072644	495
6	50328	15127.894650604765	496
6	50363	15139.289537009752	497
6	50715	15248.13364062943	498
6	50785	15268.695034986216	499
6	50826	15280.46146577301	500
6	51030	15344.250166306586	501
6	51179	15394.399671272468	502
6	51248	15414.572536953346	503
6	51250	15414.947571800556	504
6	51349	15444.851060965787	505
6	51357	15448.674094377673	506
6	51476	15482.70733069085	507
6	51588	15517.70506365266	508
6	51653	15534.02761162143	509
6	51668	15539.03025549863	510
6	51722	15555.28655626765	511
6	51741	15559.465171982453	512
6	51898	15605.152073265268	513
6	51907	15606.164933652179	514
6	51914	15608.182807413199	515
6	51982	15626.115770331639	516
6	52170	15680.749719462308	517
6	52243	15704.509050811865	518
6	52259	15710.235050526605	519
6	52327	15730.109034908892	520
6	52395	15752.703095678901	521
6	52487	15776.691469657939	522
6	52489	15777.151041277899	523
6	52493	15777.880535241386	524
6	52508	15783.011963203748	525
6	52513	15783.802170831153	526
6	52578	15801.574651168008	527
6	52583	15802.898433254029	528
6	52738	15849.899122815181	529
6	52976	15919.862826357167	530
6	52993	15923.594401928086	531
6	53085	15954.050894813374	532
6	53090	15955.210768465896	533
6	53116	15965.283638957511	534
6	53121	15965.77782364048	535
6	53317	16024.447310137236	536
6	53404	16049.753987357693	537
6	53606	16106.212006083228	538
6	53821	16166.109792943023	539
6	54034	16226.522361812929	540
6	54050	16232.84020974411	541
6	54057	16234.484249199781	542
6	54105	16247.3858660348	543
6	54174	16267.287849661444	544
6	54203	16275.15667472227	545
6	54263	16294.44169608487	546
6	54283	16300.326344761509	547
6	54348	16317.14937291409	548
6	54582	16386.148496744295	549
6	54631	16401.277903030018	550
6	54676	16416.959274761041	551
6	54850	16467.803709495556	552
6	54920	16487.343571715993	553
6	55075	16533.313305915359	554
6	55126	16547.609935581096	555
6	55128	16547.948282973095	556
6	55145	16552.855756451788	557
6	55334	16614.960088859292	558
6	55394	16632.344940061249	559
6	55753	16739.501956774911	560
6	55797	16752.570757658044	561
6	55824	16761.062162265665	562
6	55865	16772.855191648888	563
6	55921	16790.1700053442	564
6	56013	16819.134683832308	565
6	56028	16823.275468245825	566
6	56065	16831.101873632213	567
6	56139	16856.934452415143	568
6	56159	16863.132169806855	569
6	56203	16878.058751243932	570
6	56320	16909.643255864542	571
6	56362	16920.44417766049	572
6	56393	16929.754724376791	573
6	56470	16952.699704688053	574
6	56670	17009.160362712013	575
6	56714	17020.450772093981	576
6	56773	17038.592663219125	577
6	57104	17139.738735524149	578
6	57108	17140.266164149384	579
6	57164	17156.079042776335	580
6	57298	17197.547481211743	581
6	57468	17249.599736059614	582
6	57516	17261.791908951857	583
6	57557	17273.785434715268	584
6	57616	17293.631413866512	585
6	57638	17299.402948030018	586
6	57783	17343.471126759624	587
6	57842	17360.533446031818	588
6	57889	17371.396831706168	589
6	58280	17491.899305076746	590
6	58287	17492.82693272675	591
6	58306	17497.373968561087	592
6	58390	17527.304039861428	593
6	58400	17530.919860267174	594
6	58523	17564.784330016937	595
6	58548	17572.442464748988	596
6	58603	17590.750273992047	597
6	58669	17610.529370408862	598
6	58908	17686.201047518556	599
6	59017	17723.615467821295	600
6	59056	17732.999764164381	601
6	59154	17762.59990217966	602
6	59172	17769.395698966561	603
6	59188	17772.919546343521	604
6	59216	17782.955617371234	605
6	59231	17786.763448173985	606
6	59247	17791.248758543722	607
6	59438	17849.026966681297	608
6	59518	17871.779649344951	609
6	59657	17914.584613103383	610
6	59769	17952.916756214773	611
6	59798	17961.685079104002	612
6	59978	18018.370289052128	613
6	60055	18039.73407350488	614
6	60153	18068.441959929172	615
6	60307	18114.775310420637	616
6	60337	18123.460685406476	617
6	60456	18160.383967878434	618
6	60558	18188.583761315816	619
6	60565	18190.276661279927	620
6	60585	18196.184305213026	621
6	60637	18211.24014189418	622
6	60670	18218.422293571333	623
6	60771	18248.899143920647	624
6	60851	18270.281400029902	625
6	60956	18300.960464756419	626
6	60985	18311.612102749605	627
6	60994	18313.218106215969	628
6	61281	18398.279035005776	629
6	61298	18402.113870712785	630
6	61321	18407.025012383313	631
6	61342	18411.592013194324	632
6	61348	18412.328147300453	633
6	61398	18427.349334199708	634
6	61628	18495.450797075257	635
6	61666	18503.825799536834	636
6	61823	18550.690866431961	637
6	61887	18568.956668940283	638
6	61991	18601.429900568256	639
6	62105	18638.277848397698	640
6	62107	18638.345439773981	641
6	62119	18641.672025820858	642
6	62261	18680.011951090636	643
6	62537	18767.242819834855	644
6	62662	18807.321249954864	645
6	62705	18819.04956234142	646
6	62887	18875.738576777186	647
6	62999	18910.873137253822	648
6	63146	18954.256919464959	649
6	63159	18957.711846851717	650
6	63304	19001.113824147546	651
6	63311	19001.973260475915	652
6	63602	19089.347407741621	653
6	63623	19095.17412707114	654
6	63641	19100.416138645133	655
6	63759	19130.804346412628	656
6	63973	19197.964084813319	657
6	63980	19201.156086058392	658
6	64094	19234.940279809608	659
6	64096	19235.576391505257	660
6	64112	19238.414607298903	661
6	64119	19240.60906134612	662
6	64548	19367.33374514854	663
6	64562	19371.30093973914	664
6	64667	19405.210732268823	665
6	64691	19412.089339247649	666
6	64752	19429.810637641865	667
6	64825	19450.964646903036	668
6	64895	19477.619740392285	669
6	64897	19477.88990900569	670
6	64999	19510.963357289328	671
6	65067	19530.539142033321	672
6	65110	19544.180241013623	673
6	65123	19548.283913990781	674
6	65138	19553.399518020602	675
6	65176	19562.838463902033	676
6	65334	19605.942940660741	677
6	65777	19746.81296887728	678
6	65880	19782.13423656928	679
6	66064	19838.90726471383	680
6	66073	19840.302211526072	681
6	66097	19847.526649665719	682
6	66122	19854.613701454411	683
6	66235	19886.446282482724	684
6	66298	19900.712758394958	685
6	66358	19919.541917657108	686
6	66421	19936.814246275899	687
6	66489	19960.289043693217	688
6	66595	19989.358390737025	689
6	66672	20010.369822631118	690
6	66839	20062.222743071313	691
6	66924	20087.944589444533	692
6	66962	20100.431344156618	693
6	66986	20105.927170360513	694
6	67097	20142.654893566852	695
6	67199	20168.63404034187	696
6	67223	20175.378560095979	697
6	67311	20204.274381310164	698
6	67364	20217.764129947474	699
6	67409	20233.178600063311	700
6	67418	20233.895966460309	701
6	67455	20247.16922534303	702
6	67551	20277.111852674766	703
6	67565	20283.101540575374	704
6	67570	20284.207640979634	705
6	67627	20298.733406642509	706
6	67784	20345.004558535545	707
6	67844	20360.026116998535	708
6	67888	20372.547075115067	709
6	67927	20383.762177934574	710
6	67936	20384.966421527417	711
6	68147	20453.21597636941	712
6	68158	20455.695389637357	713
6	68223	20475.9926840139	714
6	68516	20562.626487908023	715
6	68537	20566.971441348801	716
6	68605	20586.085190467237	717
6	68714	20618.848848840396	718
6	68783	20642.602387781581	719
6	68845	20661.426923367652	720
6	68904	20679.457926116424	721
6	68938	20688.621668101966	722
6	68945	20690.511771247258	723
6	69134	20747.956895984947	724
6	69358	20814.476239329438	725
6	69371	20819.9392375575	726
6	69398	20827.709205502039	727
6	69400	20827.743739142065	728
6	69448	20843.179360428683	729
6	69473	20847.524412677726	730
6	69563	20869.575285405976	731
6	69608	20885.130658297309	732
6	69624	20888.274091100153	733
6	69688	20911.104708427371	734
6	69754	20929.608897344394	735
6	69888	20968.289496973098	736
6	69900	20971.425004386455	737
6	69944	20981.704986191814	738
6	69952	20984.210338792223	739
6	69959	20986.031331383235	740
6	69967	20988.600186467157	741
6	70181	21056.352434173896	742
6	70396	21122.806658604193	743
6	70418	21129.510554909174	744
6	70494	21153.453011532008	745
6	70688	21209.723452728571	746
6	70781	21237.030998442878	747
6	70863	21264.735358315162	748
6	70883	21273.370760547372	749
6	70932	21287.902458932641	750
6	71020	21314.347355947663	751
6	71144	21349.678477917534	752
6	71193	21365.137179835311	753
6	71291	21393.924902325751	754
6	71293	21395.128465727144	755
6	71310	21399.910717039926	756
6	71398	21421.917793835336	757
6	71594	21486.324346508341	758
6	71845	21561.991482486407	759
6	71873	21569.424925527178	760
6	71925	21586.074274179014	761
6	71952	21593.581285128184	762
6	72038	21619.362559432572	763
6	72196	21673.026614204436	764
6	72305	21699.85293169052	765
6	72386	21726.924842371189	766
6	72532	21769.059013679255	767
6	72539	21770.695094650719	768
6	72583	21783.818490884366	769
6	72725	21822.515414413876	770
6	72744	21829.476503662911	771
6	72896	21876.81697911551	772
6	72903	21878.01927815678	773
6	72996	21905.62093405895	774
6	73059	21924.131614224781	775
6	73226	21976.72592492796	776
6	73248	21983.159390158833	777
6	73260	21986.381745230965	778
6	73502	22062.672669608127	779
6	73853	22173.963432311834	780
6	73858	22175.354641740816	781
6	73913	22190.057024134499	782
6	74064	22238.578576691451	783
6	74220	22285.238078318699	784
6	74485	22365.442283219606	785
6	74545	22384.582113073146	786
6	74686	22426.16585696543	787
6	74824	22468.814617096092	788
6	74885	22486.170979682247	789
6	75410	22648.732941306617	790
6	75465	22666.460387529417	791
6	75617	22712.826026650313	792
6	75680	22733.304735035733	793
6	75941	22815.920051672445	794
6	75976	22827.855786316527	795
6	76012	22836.803681786761	796
6	76137	22875.444715754827	797
6	76181	22890.090388241947	798
6	76191	22892.001552396713	799
6	76219	22901.777057685108	800
6	76235	22905.322413813851	801
6	76313	22931.294402930646	802
6	76420	22966.870218739388	803
6	76681	23039.933807933178	804
6	76691	23043.569138260365	805
6	76956	23126.275217400371	806
6	77017	23143.183607543001	807
6	77178	23194.590957651251	808
6	77342	23244.65529107705	809
6	77556	23304.867823306864	810
6	77616	23320.965498169255	811
6	77650	23329.318496180528	812
6	77702	23343.273889059483	813
6	77727	23348.79341158911	814
6	77734	23349.72271736815	815
6	77796	23366.724437841055	816
6	77808	23369.931955981149	817
6	77879	23391.993897992872	818
6	78054	23440.946562938683	819
6	78088	23452.069088647007	820
6	78324	23525.879026815424	821
6	78512	23579.797061830259	822
6	78558	23594.515002022473	823
6	78916	23706.19444910434	824
6	78954	23718.933411977757	825
6	79282	23818.401475054659	826
6	79443	23866.05006787231	827
6	79481	23875.90438650334	828
6	79493	23878.713185049253	829
6	79803	23972.713589137528	830
6	79862	23989.244849155741	831
6	79876	23992.559094243941	832
6	79923	24007.396232080268	833
6	80047	24045.856768763132	834
6	80207	24091.561931691146	835
6	80353	24132.436565574689	836
6	80443	24156.848682479485	837
6	80491	24169.047187944432	838
6	80601	24200.730841119125	839
6	80653	24215.197707606971	840
6	80689	24226.767376137076	841
6	80769	24253.184627719961	842
6	80846	24275.984107665417	843
6	80868	24283.525304730202	844
6	80969	24314.81359574493	845
6	81014	24329.186209963409	846
6	81095	24353.947280652864	847
6	81129	24364.949940467002	848
6	81487	24469.279281799995	849
6	81547	24490.828295588993	850
6	81688	24534.911838086407	851
6	81768	24559.184430454312	852
6	82104	24665.925309736569	853
6	82209	24694.279369706904	854
6	82255	24703.903662685036	855
6	82330	24722.951751025079	856
6	82536	24783.558740569367	857
6	82558	24790.283440585645	858
6	82856	24877.91409178957	859
6	82979	24919.211901450571	860
6	83060	24940.339908517127	861
6	83062	24941.653724939057	862
6	83297	25010.380185990678	863
6	83352	25024.3307820332	864
6	83446	25055.189031671881	865
6	83601	25100.156971711946	866
6	83633	25109.555224556055	867
6	83823	25166.036243001624	868
6	84058	25241.202104149008	869
6	84122	25259.465185072235	870
6	84185	25280.43804971509	871
6	84458	25360.061543885176	872
6	84575	25395.503203973822	873
6	84841	25470.862768737757	874
6	85110	25555.217320210001	875
6	85278	25607.426557402113	876
6	85321	25618.640074919449	877
6	85408	25645.000504441626	878
6	85455	25659.125906355756	879
6	85483	25669.54980455728	880
6	85716	25736.016577006583	881
6	85790	25756.203807048987	882
6	85817	25764.134488020987	883
6	86020	25827.988698811121	884
6	86102	25851.890992295177	885
6	86138	25862.95098611423	886
6	86161	25868.72935468356	887
6	86223	25883.785562060769	888
6	86293	25902.001045723656	889
6	86369	25924.562921910997	890
6	86387	25928.746878190777	891
6	86406	25933.159293629693	892
6	86464	25953.351120611369	893
6	86513	25968.410582367242	894
6	86521	25971.112697552762	895
6	86694	26017.485731044913	896
6	86731	26028.230441244185	897
6	87010	26117.736381337313	898
6	87148	26159.916797020261	899
6	87188	26169.287792880886	900
6	87202	26173.564668984651	901
6	87224	26179.466716697075	902
6	87349	26216.514429127883	903
6	87354	26217.440774457728	904
6	87435	26246.061784144448	905
6	87464	26254.612756747897	906
6	87490	26262.391362629483	907
6	87512	26267.985854918472	908
6	87822	26364.682300885392	909
6	87868	26379.141095059028	910
6	87937	26396.98105639677	911
6	88014	26419.86645862368	912
6	88119	26454.177927330065	913
6	88253	26497.051041452948	914
6	88347	26520.67274306385	915
6	88398	26536.068401027991	916
6	88493	26562.973897262479	917
6	88544	26576.769928272721	918
6	88755	26639.147853929074	919
6	88766	26640.979465607362	920
6	88922	26690.438086751631	921
6	88936	26693.800808102566	922
6	88958	26700.763081014105	923
6	89040	26722.055554797144	924
6	89475	26856.516090383123	925
6	89567	26883.759991837958	926
6	89580	26888.102161912263	927
6	89831	26958.709906391761	928
6	89936	26990.162286815488	929
6	90066	27024.82824229541	930
6	90246	27077.420392501767	931
6	90693	27217.498604548861	932
6	90722	27226.170459026043	933
6	90740	27231.612142840303	934
6	90759	27237.583679996824	935
6	90801	27249.017462703737	936
6	90910	27284.347833832326	937
6	90947	27295.629886893478	938
6	90990	27309.814317510086	939
6	90997	27311.46900524645	940
6	91094	27340.252059319328	941
6	91156	27357.166057122357	942
6	91268	27388.44925724549	943
6	91270	27388.74166470513	944
6	91275	27390.007732858369	945
6	91298	27398.778139396011	946
6	91522	27464.493900391052	947
6	91589	27482.837006208144	948
6	91597	27486.435488575934	949
6	91885	27573.38343259203	950
6	92089	27631.153456772576	951
6	92106	27635.732484614618	952
6	92110	27635.966616650287	953
6	92284	27686.92323617388	954
6	92420	27727.835662108922	955
6	92479	27745.340683718898	956
6	92527	27762.58242323804	957
6	92562	27771.710201457547	958
6	92666	27802.668067760475	959
6	92678	27806.993798301064	960
6	92683	27808.884782514242	961
6	92749	27830.015194568174	962
6	92754	27832.162403657718	963
6	92764	27834.894255012534	964
6	92819	27852.915227549872	965
6	93097	27928.678288060949	966
6	93243	27973.551027543891	967
6	93351	28007.762809964985	968
6	93507	28052.45958673266	969
6	93512	28053.40648171127	970
6	93576	28071.428311157252	971
6	93644	28091.218659425323	972
6	93862	28154.756481905675	973
6	93909	28170.105667171958	974
6	93924	28172.784298147976	975
6	93928	28173.56273709626	976
6	93938	28176.751973932507	977
6	93985	28191.597425938984	978
6	94017	28197.919445792274	979
6	94187	28251.351889122287	980
6	94210	28257.76714944615	981
6	94318	28287.877369106651	982
6	94382	28306.57359120818	983
6	94692	28405.461214295349	984
6	94832	28448.177006759556	985
6	95004	28498.529220148068	986
6	95222	28569.371150960854	987
6	95390	28621.732735483305	988
6	95906	28787.425573471358	989
6	95911	28788.832869835234	990
6	95987	28810.502939275475	991
6	96096	28844.620389292109	992
6	96169	28867.238159971439	993
6	96234	28883.899729327595	994
6	96398	28936.806298883545	995
6	96428	28946.588154586676	996
6	96580	28995.165854962724	997
6	96741	29043.373542136288	998
6	96942	29104.396421210595	999
6	97075	29146.039679665824	1000
6	97194	29183.433696725398	1001
6	97416	29253.360724918515	1002
6	97493	29277.421134571251	1003
6	97700	29340.182230248131	1004
6	97993	29428.59883063002	1005
6	98270	29509.458438138002	1006
6	98275	29510.433635801844	1007
6	98309	29520.89849265541	1008
6	98361	29536.791436834031	1009
6	98388	29545.069095301463	1010
6	98672	29631.202968956261	1011
6	98697	29638.699220040518	1012
6	98776	29661.321204813905	1013
6	98823	29674.762023724867	1014
6	98852	29684.561394247445	1015
6	98916	29702.959369464553	1016
6	99037	29740.024647604287	1017
6	99044	29741.456779208571	1018
6	99046	29741.965566988043	1019
6	99183	29782.28881049462	1020
6	99201	29785.841724187353	1021
6	99206	29786.447646456356	1022
6	99292	29817.618997725564	1023
6	99340	29830.349497761817	1024
6	99371	29840.413072268189	1025
6	99446	29861.204052118639	1026
6	99512	29881.008309093957	1027
6	99556	29891.773840323505	1028
6	99640	29918.829333953261	1029
6	99777	29960.226577861363	1030
6	99807	29968.521017989477	1031
6	99855	29981.438767304493	1032

