version 2
run Third_exit_8-6-20191017-13:44:25-2041
attr configname Third_exit_8
attr datetime 20191017-13:44:25
attr experiment Third_exit_8
attr inifile omnetpp.ini
attr iterationvars ""
attr iterationvarsf ""
attr measurement ""
attr network ResponseTimeNetwork
attr processid 2041
attr repetition 6
attr replication #6
attr resultdir results
attr runnumber 6
attr seedset 6
param **.Source.interArrivalTime exponential(6s)
param **.jobPriority bernoulli(0.8)
param **.PS.serviceTimeU1 "uniform(1.2s, 2.0s)"
param **.PS.serviceTimeU2 "uniform(2.4s, 2.8s)"
param **.SS1.serviceTime exponential(1.4s)
param **.SS2.serviceTime exponential(2s)
param **.PS.exitProbability bernoulli(0.8)

vector 0 ResponseTimeNetwork.SS1 queueLength:vector ETV
attr interpolationmode sample-hold
attr title "queue length, vector"
vector 1 ResponseTimeNetwork.SS2 queueLength:vector ETV
attr interpolationmode sample-hold
attr title "queue length, vector"
vector 2 ResponseTimeNetwork.QueueU1 queueLength:vector ETV
attr interpolationmode sample-hold
attr title "queue length, vector"
vector 3 ResponseTimeNetwork.QueueU2 queueLength:vector ETV
attr interpolationmode sample-hold
attr title "queue length, vector"
vector 4 ResponseTimeNetwork.sink lifeTimeU1:vector ETV
attr interpolationmode none
attr title "lifetime of arrived jobs U1, vector"
attr unit s
vector 5 ResponseTimeNetwork.sink lifeTime:vector ETV
attr interpolationmode none
attr title "lifetime of arrived jobs, vector"
attr unit s
vector 6 ResponseTimeNetwork.sink lifeTimeU2:vector ETV
attr interpolationmode none
attr title "lifetime of arrived jobs U2, vector"
attr unit s
2	0	0	0
2	12	32.162537782624	1
2	13	32.576728200002	0
2	17	33.889511526403	1
2	18	34.111774144343	0
2	22	34.683788571238	1
2	23	35.698040310501	0
2	30	37.586518500298	1
2	32	38.139872624321	2
2	34	38.523741239968	3
2	35	39.037259131878	2
2	42	40.75354320465	1
2	45	42.609429762162	0
2	49	43.355731718427	1
2	50	44.352232880167	0
2	62	49.243252099156	1
2	63	49.535067062101	0
2	76	52.425750977958	1
2	78	52.503445715945	2
2	79	52.602231804675	1
2	85	53.94183091487	2
2	86	54.462705397254	1
2	89	56.09925929757	0
2	96	58.268321204892	1
2	97	59.515511567538	0
2	101	60.050961095273	1
2	102	61.465391194095	0
2	106	61.521532341642	1
2	109	62.946839009059	0
2	113	63.667775982259	1
2	114	64.743139122819	0
2	118	65.431072950208	1
2	119	66.522395575998	0
2	123	67.251875995383	1
2	124	68.290431073514	0
2	134	71.864052551264	1
2	136	72.380397718687	2
2	137	72.676648792458	1
2	141	73.451555630725	2
2	144	74.561679333282	1
2	148	75.02910956464	2
2	150	75.429102669097	3
2	151	76.187755092253	2
2	157	76.69003863968	3
2	158	77.655599924569	2
2	162	78.473416062809	3
2	163	79.006885616501	2
2	167	79.178627673025	3
2	168	80.654946412352	2
2	172	81.781738078243	3
2	173	82.346965640617	2
2	177	82.398578309868	3
2	179	82.906332940236	4
2	180	83.916854334456	3
2	183	85.82379750332	2
2	187	86.738498719792	3
2	188	87.518525912446	2
2	192	88.423585856714	3
2	193	88.919636457619	2
2	196	90.713143402916	1
2	199	92.573890034315	0
2	203	93.012521133296	1
2	205	94.130047426857	2
2	206	94.320473898222	1
2	210	95.193310094927	2
2	211	96.082733944078	1
2	215	96.167628884222	2
2	216	97.608739840631	1
2	220	98.078694551989	2
2	221	99.548574856502	1
2	225	100.275687375177	2
2	226	101.096264326406	1
2	230	102.335436350409	2
2	231	102.842094030996	1
2	235	103.092015460161	2
2	236	104.587042314765	1
2	240	104.716309786087	2
2	242	104.916659133947	3
2	243	105.988333630023	2
2	246	107.345663307068	1
2	249	108.931140416694	0
2	256	110.450749848325	1
2	259	111.670335746577	0
2	263	111.961123809224	1
2	264	113.075464454314	0
2	268	113.147329885183	1
2	270	113.199879132909	2
2	275	114.369090886249	1
2	279	115.358563541411	2
2	281	115.58233614266	3
2	282	115.645370645284	2
2	286	116.167867808572	3
2	287	117.194001638725	2
2	291	117.312370121816	3
2	293	117.855890786782	4
2	295	117.857761245166	5
2	296	118.831367903597	4
2	299	120.252448267884	3
2	303	120.323402260151	4
2	305	120.506738095749	5
2	307	120.60742171003	6
2	308	121.55297494179	5
2	312	121.664987828798	6
2	313	123.373002887726	5
2	317	123.649821020287	6
2	318	124.642682790965	5
2	321	126.32907984855	4
2	325	127.475088998818	5
2	326	127.56247894822	4
2	330	128.715914851906	5
2	331	128.78300406637	4
2	334	130.733718148455	3
2	338	130.77827831514	4
2	340	131.941819601322	5
2	343	132.562522835866	4
2	346	133.796708836615	3
2	350	134.143352740006	4
2	352	134.980313749244	5
2	353	135.650202831648	4
2	356	137.290235780202	3
2	359	138.943673193664	2
2	362	140.234007860743	1
2	366	140.354130799238	2
2	367	141.484228853904	1
2	371	142.346320826473	2
2	373	142.460054624463	3
2	375	142.526678328765	4
2	377	142.583531008545	5
2	378	143.072617067047	4
2	382	143.265280053601	5
2	384	143.451161489232	6
2	385	144.904678988852	5
2	389	144.948605664375	6
2	391	145.377290332631	7
2	392	146.11396366416	6
2	396	146.39233737945	7
2	397	147.968939737813	6
2	401	148.012827875338	7
2	402	149.792326896475	6
2	405	151.312925675721	5
2	409	151.707890004966	6
2	410	153.193765836419	5
2	414	153.256208218898	6
2	415	154.59775439112	5
2	418	155.96364640093	4
2	422	157.271649015673	5
2	423	157.748569904105	4
2	427	158.637920084466	5
2	428	159.727027903707	4
2	432	160.784451148457	5
2	434	161.140660291133	6
2	435	161.270004847297	5
2	438	162.752739672573	4
2	442	162.88358815063	5
2	443	164.715655338602	4
2	446	166.308138886863	3
2	450	166.659580052912	4
2	452	166.68698670106	5
2	454	167.065447134493	6
2	455	167.713245097199	5
2	459	168.745522952963	6
2	460	169.112892432907	5
2	464	169.306951567766	6
2	465	170.752659272799	5
2	469	171.425042181767	6
2	470	172.112734075101	5
2	473	174.030955364766	4
2	477	174.149025125586	5
2	478	175.645202397393	4
2	481	177.050053285459	3
2	484	178.463011721546	2
2	488	178.627905913637	3
2	490	179.17608965186	4
2	491	179.776873894433	3
2	494	181.531372851344	2
2	497	183.016321783351	1
2	501	183.227561852825	2
2	503	183.558596654573	3
2	504	184.255473052735	2
2	508	185.753408061481	3
2	509	186.16173285416	2
2	513	186.882613771772	3
2	514	188.133279266047	2
2	518	188.45134748067	3
2	520	188.62636043483	4
2	522	188.818362917958	5
2	523	189.56560027695	4
2	526	190.981238753374	3
2	530	191.633498942697	4
2	531	192.619802470531	3
2	535	193.307237301332	4
2	536	194.48254999819	3
2	540	195.91439493724	4
2	541	196.08432190663	3
2	545	196.893728813664	4
2	546	197.401196476284	3
2	549	199.333411187518	2
2	553	200.192975090467	3
2	554	200.726713348392	2
2	558	200.808252941265	3
2	560	200.971556303487	4
2	562	201.413232265296	5
2	563	202.436220078755	4
2	566	203.97340510844	3
2	569	205.532985314566	2
2	573	205.711084954086	3
2	575	205.890924133256	4
2	577	206.109786613814	5
2	579	206.434648616101	6
2	580	206.910639529142	5
2	584	207.465498188285	6
2	585	208.792156177412	5
2	589	208.824032490709	6
2	591	209.163510036008	7
2	592	210.200557072672	6
2	596	211.114894131512	7
2	599	211.449886783983	6
2	602	213.279366120163	5
2	606	213.928394676038	6
2	607	214.736378130715	5
2	611	215.136753838782	6
2	613	216.179371387453	7
2	614	216.564000701185	6
2	618	217.323636687765	7
2	619	218.281464166406	6
2	623	218.594530360162	7
2	625	219.435531230302	8
2	627	219.904629430466	9
2	628	220.062482570696	8
2	631	221.993068602148	7
2	635	222.641076409206	8
2	637	222.765849639265	9
2	638	223.932282625909	8
2	641	225.221295934941	7
2	645	226.781078968954	8
2	646	226.982888532269	7
2	650	227.318297338542	8
2	652	227.477446971763	9
2	653	228.267374144706	8
2	656	229.521079924169	7
2	660	230.46911485174	8
2	661	231.070250280227	7
2	665	231.310071247225	8
2	667	231.655594634179	9
2	669	232.416277526588	10
2	670	232.923118948217	9
2	674	233.218057732635	10
2	675	234.786182094018	9
2	678	236.429003492209	8
2	682	236.784917525662	9
2	683	237.859418363894	8
2	687	238.201834165259	9
2	688	239.720498176316	8
2	691	241.176170485864	7
2	695	242.986532608402	8
2	696	243.103445824819	7
2	700	243.959174972717	8
2	701	244.861973298738	7
2	705	245.200320640511	8
2	706	246.257249913017	7
2	710	246.525126044178	8
2	711	248.138445932816	7
2	714	249.810128947559	6
2	718	250.148874835307	7
2	720	250.568492573884	8
2	722	251.299142212489	9
2	723	251.375686318825	8
2	727	251.74320395861	9
2	728	252.784760910111	8
2	732	253.243556334274	9
2	734	253.547561642556	10
2	736	253.912650227216	11
2	737	254.229230708467	10
2	741	254.248223621142	11
2	742	256.092739309209	10
2	745	257.345430353309	9
2	749	257.702451204223	10
2	750	258.963487299184	9
2	754	259.646920608027	10
2	755	260.835273808266	9
2	758	262.486179545547	8
2	761	263.857843067522	7
2	765	264.981674186545	8
2	767	265.029395553895	9
2	768	265.183530280205	8
2	772	266.439744157752	9
2	773	266.625161269704	8
2	777	267.297945458858	9
2	778	268.207282724628	8
2	782	269.543707104025	9
2	784	269.808720794046	10
2	785	270.126362798573	9
2	788	271.53359646576	8
2	791	273.225556558208	7
2	795	273.575425044563	8
2	796	274.739850431704	7
2	800	274.993183821045	8
2	802	276.153649746862	9
2	803	276.450916402251	8
2	807	277.715566545112	9
2	810	278.240982017503	8
2	813	280.135215998278	7
2	817	280.477845916495	8
2	819	280.923587704611	9
2	821	281.749471516036	10
2	822	281.856571014435	9
2	826	282.307022347053	10
2	827	283.110946850502	9
2	830	284.440303585143	8
2	834	284.549261411749	9
2	837	285.919243248017	8
2	841	286.026991657299	9
2	843	287.341531174618	10
2	844	287.405101860152	9
2	848	287.766676775882	10
2	850	288.142700894689	11
2	852	288.53714383375	12
2	853	289.372404942871	11
2	856	290.580806455412	10
2	860	290.794031751958	11
2	862	291.173683136004	12
2	863	292.22500531117	11
2	866	293.689794723341	10
2	870	293.882289208369	11
2	871	295.530542076589	10
2	875	295.621229829902	11
2	877	295.94799746834	12
2	878	297.062011079886	11
2	882	298.246610746013	12
2	883	298.298666399554	11
2	887	299.119414248456	12
2	888	300.081546525308	11
2	892	300.620842989385	12
2	893	301.424780396209	11
2	896	303.412683114433	10
2	900	304.138325031649	11
2	901	304.821987150819	10
2	905	305.221190582522	11
2	906	306.211169920699	10
2	910	306.293326550223	11
2	911	307.925562205003	10
2	915	308.715572057742	11
2	917	309.331406111729	12
2	918	309.443334987038	11
2	922	309.613396242562	12
2	923	310.708332271711	11
2	927	311.547037308997	12
2	928	312.054606856429	11
2	931	313.768498617993	10
2	934	315.663586004661	9
2	938	315.833048820595	10
2	940	315.927165479861	11
2	941	317.508567611897	10
2	945	318.87157930975	11
2	946	318.958469582373	10
2	950	319.741505017314	11
2	951	320.642662990676	10
2	954	322.187089965144	9
2	957	324.046925260896	8
2	961	325.404189507834	9
2	962	325.644566936815	8
2	966	325.821777866986	9
2	968	326.332746113368	10
2	970	326.668743666617	11
2	971	327.008132963093	10
2	975	328.356635753727	11
2	976	328.515439612443	10
2	980	329.037952783114	11
2	981	330.40937024227	10
2	984	331.609785573209	9
2	987	333.410900855461	8
2	991	334.027863059929	9
2	993	334.393413249093	10
2	995	334.724928811823	11
2	996	335.323580335291	10
2	1000	336.122562123917	11
2	1001	337.199269811274	10
2	1005	337.525906543022	11
2	1007	338.439480780573	12
2	1008	338.662500298419	11
2	1012	339.006469062219	12
2	1013	339.882648030692	11
2	1017	340.156726195952	12
2	1018	341.547450396815	11
2	1022	341.564732781527	12
2	1023	343.535248233961	11
2	1026	345.521928466881	10
2	1029	347.216543692561	9
2	1033	347.557213681176	10
2	1034	348.574378854806	9
2	1037	350.2327918662	8
2	1040	351.603367505992	7
2	1044	352.415240980694	8
2	1045	352.910130516464	7
2	1049	354.202483773594	8
2	1050	354.662233838091	7
2	1054	355.139517631634	8
2	1056	355.251550063936	9
2	1058	355.371309892422	10
2	1059	356.516149522575	9
2	1063	356.906719986024	10
2	1065	356.924188679735	11
2	1067	357.313377836728	12
2	1068	358.337556069183	11
2	1074	358.761858551791	12
2	1076	359.822316077923	13
2	1077	360.20167206193	12
2	1081	360.327336379526	13
2	1082	362.185666354957	12
2	1085	363.575930220659	11
2	1089	363.593555474429	12
2	1091	364.725395338366	13
2	1092	365.484322407681	12
2	1095	367.434908067647	11
2	1099	367.96428670018	12
2	1100	368.712474620368	11
2	1104	369.816668990065	12
2	1105	370.460745407853	11
2	1109	371.646984592346	12
2	1110	371.733396800633	11
2	1114	372.95797081483	12
2	1115	373.058809849645	11
2	1119	373.131062983878	12
2	1120	374.343929460297	11
2	1124	374.358120104685	12
2	1125	376.012542895252	11
2	1128	377.617259245576	10
2	1132	377.680100724508	11
2	1133	379.076404631348	10
2	1136	380.743822579482	9
2	1139	382.09408802914	8
2	1143	382.117405245907	9
2	1145	382.539861352778	10
2	1146	383.817278483161	9
2	1150	384.873332084697	10
2	1151	385.100748400972	9
2	1155	385.278302392633	10
2	1156	386.486451434553	9
2	1160	386.870354298935	10
2	1161	388.017589746252	9
2	1165	389.372243329879	10
2	1166	389.397778145619	9
2	1170	389.681351232694	10
2	1171	390.917319700331	9
2	1174	392.882183657609	8
2	1177	394.199633173108	7
2	1181	395.901969432171	8
2	1183	396.152336716152	9
2	1184	396.165851809293	8
2	1187	397.41330144538	7
2	1191	397.641941202861	8
2	1193	397.720468573253	9
2	1194	399.268686516792	8
2	1198	400.75392871105	9
2	1199	400.761234570131	8
2	1203	401.25103915131	9
2	1204	402.56028994231	8
2	1207	404.120843670168	7
2	1211	404.488097792342	8
2	1213	404.587320331203	9
2	1216	405.95150743539	8
2	1220	407.721867932621	9
2	1221	407.732036098116	8
2	1225	407.845247941833	9
2	1226	409.210589047358	8
2	1230	409.449419424788	9
2	1231	410.458823932916	8
2	1235	410.623945207079	9
2	1236	412.445726597704	8
2	1240	412.547388760085	9
2	1241	413.710492910281	8
2	1244	414.936055319779	7
2	1248	416.364879588584	8
2	1249	416.855816695862	7
2	1252	418.075493783527	6
2	1256	419.169542105752	7
2	1258	419.863692082142	8
2	1259	419.945622199238	7
2	1262	421.388774377503	6
2	1265	423.267303864308	5
2	1269	423.730535477359	6
2	1270	424.974911962658	5
2	1274	425.892159555016	6
2	1275	426.739188104145	5
2	1279	427.818769717939	6
2	1280	428.671208553597	5
2	1283	430.455022512212	4
2	1287	430.897751593404	5
2	1289	431.588621586785	6
2	1290	431.778162873	5
2	1294	432.135775950615	6
2	1296	432.386654608151	7
2	1297	433.11497993546	6
2	1301	433.866807827106	7
2	1303	434.191083056167	8
2	1305	434.810021276945	9
2	1306	435.0739237061	8
2	1310	435.220029307758	9
2	1312	436.27533018016	10
2	1313	436.395567687996	9
2	1316	438.250194331467	8
2	1320	439.078504999222	9
2	1322	439.366231775903	10
2	1323	440.163603526376	9
2	1327	440.627116808764	10
2	1329	440.997139028708	11
2	1331	441.180152253288	12
2	1332	441.956277464725	11
2	1336	443.212559785006	12
2	1338	443.403803976895	13
2	1339	443.61390238183	12
2	1342	445.588100601196	11
2	1346	446.373186893412	12
2	1347	446.989228566944	11
2	1351	446.992906650953	12
2	1352	448.207329821236	11
2	1356	449.785948885348	12
2	1357	450.190692761749	11
2	1361	450.962719796932	12
2	1362	451.508178638317	11
2	1366	452.45677905909	12
2	1367	452.759114385233	11
2	1371	452.9738703557	12
2	1372	454.432000814774	11
2	1375	455.802451214404	10
2	1378	457.179378645518	9
2	1382	457.98936286186	10
2	1384	458.759690663831	11
2	1385	458.89292856215	10
2	1389	459.000394840261	11
2	1390	460.496219305903	10
2	1394	460.987363173793	11
2	1396	461.054440184863	12
2	1397	462.280999043979	11
2	1401	462.463627488385	12
2	1402	464.05739357362	11
2	1405	465.61559071152	10
2	1409	466.633168884265	11
2	1410	467.570799202495	10
2	1414	468.672457163658	11
2	1416	468.924410716204	12
2	1418	469.274683434561	13
2	1420	469.41365391363	14
2	1421	469.458474156842	13
2	1425	470.266638571638	14
2	1426	471.071676348731	13
2	1429	472.983614168897	12
2	1432	474.629337286412	11
2	1435	476.336043472796	10
2	1439	476.697688993497	11
2	1440	477.961836041904	10
2	1443	479.531409300513	9
2	1447	480.527025450754	10
2	1448	481.26635607241	9
2	1452	481.722502730754	10
2	1454	481.896228985393	11
2	1457	482.675115291609	10
2	1461	483.531979282966	11
2	1463	484.12936822194	12
2	1464	484.237423313244	11
2	1468	484.671231768365	12
2	1469	485.966040195732	11
2	1473	486.466294543445	12
2	1474	487.435219471178	11
2	1478	487.636389469135	12
2	1480	489.346027063127	13
2	1481	489.360576974994	12
2	1485	490.47305187207	13
2	1486	490.813380748054	12
2	1489	492.669385720065	11
2	1493	493.397178600295	12
2	1494	494.663951517476	11
2	1497	496.129967970049	10
2	1501	496.331299532014	11
2	1502	497.62610421071	10
2	1506	498.775724522634	11
2	1507	499.082787730751	10
2	1511	499.412601501546	11
2	1512	501.036554396917	10
2	1515	503.003264034559	9
2	1519	504.131298851744	10
2	1520	504.376702256707	9
2	1524	504.935539153644	10
2	1525	506.212439441328	9
2	1529	506.44585838398	10
2	1531	507.278148407846	11
2	1532	507.629289659691	10
2	1536	508.589018296	11
2	1537	509.411269186084	10
2	1541	510.761140102574	11
2	1542	511.134397192878	10
2	1546	511.537709643784	11
2	1547	512.776786359606	10
2	1551	513.855066925452	11
2	1552	514.007996524704	10
2	1555	515.400788472985	9
2	1561	516.407208401017	10
2	1562	516.905630049315	9
2	1565	518.156443122607	8
2	1569	518.744973760382	9
2	1570	519.735384046119	8
2	1574	519.933395011247	9
2	1575	521.221943561193	8
2	1579	521.479211063748	9
2	1580	523.078580289726	8
2	1584	524.203486538067	9
2	1586	524.705553924116	10
2	1587	525.018114272338	9
2	1591	526.117309584227	10
2	1592	526.537687273529	9
2	1596	526.90596002142	10
2	1598	527.050573255193	11
2	1600	527.190635238956	12
2	1602	527.318122843229	13
2	1604	527.43354905216	14
2	1605	527.845465450194	13
2	1609	528.291688285038	14
2	1610	529.489789957013	13
2	1613	530.734417074006	12
2	1617	530.776397364401	13
2	1619	531.898971662186	14
2	1620	532.245202090237	13
2	1623	533.500758646447	12
2	1629	533.912622722412	13
2	1631	534.354603756326	14
2	1632	535.019131374191	13
2	1635	536.545778566431	12
2	1638	538.467358068768	11
2	1642	538.638070565768	12
2	1646	539.362430776237	13
2	1647	539.997658766639	12
2	1650	541.929177149032	11
2	1653	543.130994059351	10
2	1657	544.858743299216	11
2	1658	545.118670848404	10
2	1661	546.975979102236	9
2	1665	547.442629515154	10
2	1666	548.53829279339	9
2	1670	548.901463244121	10
2	1672	549.012841649414	11
2	1674	549.472948108667	12
2	1675	549.880989141968	11
2	1679	549.896379389612	12
2	1681	550.425830677169	13
2	1682	551.44812384287	12
2	1685	552.724970808831	11
2	1688	554.324434811455	10
2	1692	554.435124413098	11
2	1693	555.579445139897	10
2	1697	556.115900907547	11
2	1698	557.543582699654	10
2	1701	559.213405132127	9
2	1705	559.393405586552	10
2	1707	560.122628908849	11
2	1709	560.201471324237	12
2	1710	560.567159372029	11
2	1714	560.879276395335	12
2	1716	561.089162610181	13
2	1717	562.405219056477	12
2	1720	563.642597315666	11
2	1723	564.910965874438	10
2	1727	565.319445906784	11
2	1729	565.80025055004	12
2	1730	566.5120031547	11
2	1733	567.797253692915	10
2	1737	569.460273753187	11
2	1738	569.46302584095	10
2	1742	571.022739743835	11
2	1743	571.03291973902	10
2	1747	571.435752280516	11
2	1748	572.612900344861	10
2	1752	572.750113764042	11
2	1755	574.024020619897	10
2	1758	575.77165391056	9
2	1761	577.597252016907	8
2	1765	577.872771217943	9
2	1766	579.144282598813	8
2	1769	580.434178044666	7
2	1773	580.802151775538	8
2	1775	581.398470779416	9
2	1776	582.191732995045	8
2	1780	583.188021831785	9
2	1781	583.527347897944	8
2	1785	584.374628157212	9
2	1786	585.072571959739	8
2	1789	586.361243711432	7
2	1793	587.394458050752	8
2	1795	587.85388358668	9
2	1796	588.291826489774	8
2	1799	590.269601857496	7
2	1802	592.108923288455	6
2	1806	593.39842028543	7
2	1807	593.615165419711	6
2	1811	595.41006587566	7
2	1812	595.49413336443	6
2	1815	596.953466068788	5
2	1821	597.427050861479	6
2	1823	597.496287485489	7
2	1824	598.478654151245	6
2	1828	598.607846694348	7
2	1829	599.850055556393	6
2	1833	601.458315468281	7
2	1834	601.492979085839	6
2	1837	602.941780486538	5
2	1841	603.890368453635	6
2	1843	604.069773711229	7
2	1845	604.218556826133	8
2	1846	604.244972979671	7
2	1850	605.805493429337	8
2	1851	606.115479638076	7
2	1855	607.244506990627	8
2	1856	608.05390871281	7
2	1860	608.447195615277	8
2	1861	609.753655822596	7
2	1864	611.442490187867	6
2	1867	612.918397179639	5
2	1871	613.446437701015	6
2	1873	614.300094559564	7
2	1875	614.325428228444	8
2	1876	614.623381581364	7
2	1879	615.926069350561	6
2	1885	616.6475909171	7
2	1887	616.822755423707	8
2	1888	617.771663647352	7
2	1892	618.954511934428	8
2	1893	619.111903629473	7
2	1897	619.434398129839	8
2	1898	620.949169540985	7
2	1902	621.154244825479	8
2	1904	622.081693032745	9
2	1905	622.741623794308	8
2	1909	623.973857024031	9
2	1910	624.260894639438	8
2	1914	625.96891997865	9
2	1915	626.18944742067	8
2	1919	626.747120690951	9
2	1921	627.21634265781	10
2	1923	627.547098073858	11
2	1924	627.813267041764	10
2	1928	628.610561831444	11
2	1930	628.661528640841	12
2	1932	628.76354953208	13
2	1933	629.576852423905	12
2	1937	630.584612600886	13
2	1938	630.870901782645	12
2	1941	632.23938516902	11
2	1945	633.059853143271	12
2	1946	633.910420977717	11
2	1949	635.715967289565	10
2	1953	636.605155427422	11
2	1954	637.047352832762	10
2	1958	638.115688407606	11
2	1959	638.573799576817	10
2	1963	638.861070247214	11
2	1964	639.997320809049	10
2	1968	640.029553709309	11
2	1971	641.878082972599	10
2	1974	643.431308393387	9
2	1978	643.98000864418	10
2	1979	645.399931341244	9
2	1983	645.764942163229	10
2	1987	646.512544753133	11
2	1988	646.743326563036	10
2	1991	647.965099023862	9
2	1994	649.365126300065	8
2	1998	649.521851478167	9
2	2000	650.109545018306	10
2	2001	650.630596147871	9
2	2005	651.60094416286	10
2	2006	652.216602419524	9
2	2010	652.620652021269	10
2	2011	653.862660097538	9
2	2015	654.022827090875	10
2	2016	655.427555209047	9
2	2020	655.983966444252	10
2	2022	656.402632446478	11
2	2023	657.371447617023	10
2	2027	658.016344824567	11
2	2029	658.807513546549	12
2	2030	659.12168161927	11
2	2033	660.555655237494	10
2	2037	661.832767601532	11
2	2038	662.036114500297	10
2	2041	663.864458454793	9
2	2044	665.382620466521	8
2	2048	666.530376654952	9
2	2050	666.829356640761	10
2	2051	667.175235581418	9
2	2055	667.482165800787	10
2	2056	668.453315054645	9
2	2060	669.268870239257	10
2	2062	669.48276565973	11
2	2063	670.314367310723	10
2	2066	671.715349596759	9
2	2069	673.498171574084	8
2	2072	675.247691831013	7
2	2076	676.402224689944	8
2	2077	676.84735987412	7
2	2081	677.323920463851	8
2	2082	678.285688159449	7
2	2085	679.567961869409	6
2	2089	679.873750179919	7
2	2091	680.622473366645	8
2	2092	680.919070044366	7
2	2097	682.752564387602	6
2	2101	683.400501966437	7
2	2103	683.977026516499	8
2	2104	684.477634401639	7
2	2107	685.831695028414	6
2	2110	687.380748208259	5
2	2114	688.13210955151	6
2	2115	689.187421387081	5
2	2119	690.116688280475	6
2	2121	690.761769128122	7
2	2122	690.869020215069	6
2	2125	692.388631776181	5
2	2128	694.257353057546	4
2	2132	694.697545025618	5
2	2134	695.549446224809	6
2	2135	695.554956248609	5
2	2139	696.466130808512	6
2	2140	697.335829073397	5
2	2144	697.616512180661	6
2	2145	699.101503279825	5
2	2149	699.379562829187	6
2	2151	700.426746743609	7
2	2152	700.610560478662	6
2	2156	701.509883888073	7
2	2157	702.046440038104	6
2	2161	703.322322708032	7
2	2162	703.466670071166	6
2	2165	705.28860654423	5
2	2169	705.874275082194	6
2	2171	706.296488695279	7
2	2172	706.848439964484	6
2	2176	707.285268550937	7
2	2177	708.125594804454	6
2	2180	709.545315277967	5
2	2184	710.957103676151	6
2	2185	711.431977773476	5
2	2188	713.389485269803	4
2	2192	713.955732577176	5
2	2195	714.902688820492	4
2	2199	715.52029616426	5
2	2201	715.790892410536	6
2	2203	716.260067577452	7
2	2204	716.316600418481	6
2	2208	716.685743128085	7
2	2209	717.744220620598	6
2	2213	719.110131252705	7
2	2214	719.174426760915	6
2	2217	720.903642099182	5
2	2222	722.602313865739	4
2	2226	723.517479983781	5
2	2227	724.05154034702	4
2	2230	725.324072093907	3
2	2233	726.969045762363	2
2	2237	728.360316056701	3
2	2238	728.488276330399	2
2	2242	729.058696330095	3
2	2244	729.24036836541	4
2	2246	729.772304354406	5
2	2248	729.837941542272	6
2	2250	730.2726759361	7
2	2251	730.470227970387	6
2	2255	730.823060264795	7
2	2257	730.931960020742	8
2	2258	732.22697455028	7
2	2262	732.727476072463	8
2	2264	732.935476990691	9
2	2265	733.611188079807	8
2	2268	735.524503387715	7
2	2271	737.442750655133	6
2	2275	738.310249207289	7
2	2276	738.684407860059	6
2	2280	738.931856702737	7
2	2282	738.965220710068	8
2	2284	739.459262899486	9
2	2285	740.625434366818	8
2	2289	740.791614098381	9
2	2290	742.472097987327	8
2	2293	744.374827248435	7
2	2297	746.167414853365	8
2	2298	746.216290755961	7
2	2302	747.046961511762	8
2	2303	747.589973478038	7
2	2306	749.180453870464	6
2	2310	749.551265238575	7
2	2311	750.687880265172	6
2	2314	752.437102973665	5
2	2318	753.02829222354	6
2	2319	753.784781163017	5
2	2322	755.180615880358	4
2	2326	755.312238354916	5
2	2328	756.626812698424	6
2	2329	756.971360042709	5
2	2332	758.187390729058	4
2	2336	758.459717753788	5
2	2338	758.951579660907	6
2	2339	759.989715047385	5
2	2342	761.76197637191	4
2	2346	762.091877824707	5
2	2347	763.025304096955	4
2	2351	763.280042791285	5
2	2352	764.990374308656	4
2	2355	766.313083643484	3
2	2359	766.767257287257	4
2	2360	767.770743292588	3
2	2364	767.891394261141	4
2	2365	769.586574564892	3
2	2369	770.419246130552	4
2	2371	770.852905995469	5
2	2372	771.469650642964	4
2	2376	771.52533169504	5
2	2378	771.525379776045	6
2	2379	773.384018572624	5
2	2382	774.675744866039	4
2	2386	776.100666897289	5
2	2387	776.221834037657	4
2	2391	776.2510457568	5
2	2393	777.333908765145	6
2	2394	777.461630229856	5
2	2398	778.35205811423	6
2	2399	778.8190284379	5
2	2403	779.610862547845	6
2	2405	780.249320504431	7
2	2406	780.345698708686	6
2	2410	780.893027444409	7
2	2412	781.761029316826	8
2	2413	782.069058583322	7
2	2417	782.216840326823	8
2	2419	782.665565716922	9
2	2420	783.999615173246	8
2	2424	784.87454785365	9
2	2425	785.249445862713	8
2	2429	786.479276802903	9
2	2430	787.191823599505	8
2	2433	788.633182409051	7
2	2438	790.524549932796	6
2	2442	790.764694794934	7
2	2444	791.466736074941	8
2	2446	791.787926317599	9
2	2448	791.821802025974	10
2	2449	792.441400266457	9
2	2453	792.84582487288	10
2	2454	794.131877077948	9
2	2458	794.520601320592	10
2	2459	795.768163753133	9
2	2463	797.447786809404	10
2	2464	797.577822951246	9
2	2467	798.890364163015	8
2	2470	800.151744446177	7
2	2473	802.132558001596	6
2	2476	803.710367077048	5
2	2480	803.91772216336	6
2	2482	804.271039268653	7
2	2483	805.496569139156	6
2	2487	806.441365865397	7
2	2488	806.939163976367	6
2	2492	807.004008631098	7
2	2493	808.404911488871	6
2	2497	809.262973991956	7
2	2498	810.030918165128	6
2	2502	811.764200703847	7
2	2503	811.967704397272	6
2	2507	812.049280549254	7
2	2509	812.861537385361	8
2	2511	813.551656549753	9
2	2512	813.618573261257	8
2	2516	814.975763427392	9
2	2517	815.509169676918	8
2	2520	816.83796954045	7
2	2524	816.845173216063	8
2	2526	816.942178552436	9
2	2527	818.186304451357	8
2	2530	820.132597988117	7
2	2533	821.376574133913	6
2	2537	821.806262616174	7
2	2539	822.227482315003	8
2	2540	823.216515481303	7
2	2543	825.011454127932	6
2	2546	826.42118080912	5
2	2550	827.502319355068	6
2	2552	828.102596282913	7
2	2553	828.224218633229	6
2	2557	828.945133099571	7
2	2558	829.689048515091	6
2	2564	831.036638407707	7
2	2565	831.40128408281	6
2	2569	831.503905992648	7
2	2570	832.822228765691	6
2	2574	833.525954746894	7
2	2576	833.697170660919	8
2	2578	834.161291500157	9
2	2579	834.492743711936	8
2	2582	836.08760442959	7
2	2586	837.620069088476	8
2	2587	837.829920945706	7
2	2590	839.442719577829	6
2	2594	839.777482440516	7
2	2596	840.395060391194	8
2	2598	841.281973083559	9
2	2599	841.430281694437	8
2	2603	842.639152649878	9
2	2604	842.929839790816	8
2	2607	844.748710638116	7
2	2611	844.922345558113	8
2	2613	844.947012365049	9
2	2614	845.997737364116	8
2	2618	846.730768055527	9
2	2619	847.761022282596	8
2	2622	849.710153819452	7
2	2625	850.953012243117	6
2	2629	851.05180854721	7
2	2630	852.657438586484	6
2	2634	853.281419814077	7
2	2635	854.467143526133	6
2	2639	854.628475261132	7
2	2640	855.874137011189	6
2	2644	855.956431209367	7
2	2646	856.083745107207	8
2	2647	857.189436231945	7
2	2652	858.698580035027	6
2	2655	860.338606584463	5
2	2659	860.513537118894	6
2	2661	860.784031796676	7
2	2663	860.8672667983	8
2	2664	861.712376443688	7
2	2668	862.728474111534	8
2	2669	863.550623973664	7
2	2672	865.281796741877	6
2	2676	866.52570728227	7
2	2677	866.750314824861	6
2	2681	866.797369690295	7
2	2682	868.282627148387	6
2	2686	868.376050263548	7
2	2688	868.996599218252	8
2	2689	869.598733557594	7
2	2693	869.672741391338	8
2	2695	869.739979375082	9
2	2696	871.552612525058	8
2	2699	872.816001909432	7
2	2703	873.750377501861	8
2	2704	874.321377508176	7
2	2708	874.343260338761	8
2	2712	875.109688841212	9
2	2713	875.703138954957	8
2	2717	876.739317241418	9
2	2718	877.166593167392	8
2	2722	877.95514476234	9
2	2724	877.993723066573	10
2	2726	878.035714721459	11
2	2728	878.275221393865	12
2	2729	878.663252815438	11
2	2732	880.189228274693	10
2	2736	881.773534973291	11
2	2737	881.979536750932	10
2	2741	883.135177043606	11
2	2742	883.200365319122	10
2	2746	883.306223695474	11
2	2748	884.360339144114	12
2	2749	884.811969834585	11
2	2753	885.001496118652	12
2	2754	886.804681497459	11
2	2758	887.203516457972	12
2	2759	888.528572951649	11
2	2763	889.031546570112	12
2	2764	890.090609902163	11
2	2768	890.348198914139	12
2	2769	891.638364328091	11
2	2773	892.625689302564	12
2	2774	893.524000120369	11
2	2778	895.353258883214	12
2	2779	895.38740075661	11
2	2782	896.638547267971	10
2	2786	897.663727330602	11
2	2787	898.163441454453	10
2	2791	898.468156768456	11
2	2793	899.174955309716	12
2	2794	899.828666754273	11
2	2797	901.199471060765	10
2	2800	902.412920351905	9
2	2804	903.939756661475	10
2	2806	904.292745467239	11
2	2807	904.406191952733	10
2	2810	905.702773477157	9
2	2813	907.604085256179	8
2	2817	909.531704064478	9
2	2818	909.594891582449	8
2	2822	909.650955681827	9
2	2823	911.510593857822	8
2	2827	912.204771281968	9
2	2828	913.128285631557	8
2	2831	914.457474609298	7
2	2835	914.853516882216	8
2	2836	915.837949396876	7
2	2840	917.025973906137	8
2	2842	917.225587959661	9
2	2844	917.628896590322	10
2	2845	917.703267115561	9
2	2849	918.485682805916	10
2	2850	919.25531440491	9
2	2854	919.277961745191	10
2	2855	921.028533647043	9
2	2859	921.044077199884	10
2	2860	922.565152776634	9
2	2864	922.683544858259	10
2	2865	924.464183447344	9
2	2868	926.175365578031	8
2	2872	927.487499640667	9
2	2873	927.817696808858	8
2	2877	928.177377956845	9
2	2878	929.243044793813	8
2	2882	930.237653395814	9
2	2883	930.979231669402	8
2	2889	932.235716518495	9
2	2891	932.600859511904	10
2	2892	932.710861268847	9
2	2895	934.325290462768	8
2	2899	935.68256573037	9
2	2900	936.148572908363	8
2	2906	937.756325718004	9
2	2907	937.877226048915	8
2	2911	938.804011346028	9
2	2913	939.357652599783	10
2	2914	939.360567201136	9
2	2918	940.842891776955	10
2	2919	940.940074605516	9
2	2922	942.244788996897	8
2	2926	942.938543087148	9
2	2927	943.772971063315	8
2	2930	945.323436114959	7
2	2934	945.76475252088	8
2	2936	946.02199189987	9
2	2937	947.195229140877	8
2	2941	947.437019361598	9
2	2942	948.638094945832	8
2	2946	949.539280009005	9
2	2948	950.221753929135	10
2	2949	950.529023642673	9
2	2953	950.700936864866	10
2	2955	950.770961595015	11
2	2956	951.867068951039	10
2	2960	952.438287679712	11
2	2961	953.844831033631	10
2	2964	955.387795260197	9
2	2967	956.65291114284	8
2	2971	956.922480286517	9
2	2972	958.311466832853	8
2	2975	959.570709860905	7
2	2979	961.038125114505	8
2	2980	961.096630315318	7
2	2984	961.364349662179	8
2	2986	962.346065300646	9
2	2988	962.425693537361	10
2	2989	963.025117058329	9
2	2993	963.070576517149	10
2	2995	963.758760719092	11
2	2996	964.997114863641	10
2	2999	966.309420822396	9
2	3002	968.130569203033	8
2	3006	968.197041327503	9
2	3008	969.15644791966	10
2	3009	969.581253697558	9
2	3013	970.124716388323	10
2	3014	971.243405671998	9
2	3018	971.527021252763	10
2	3019	972.556117255821	9
2	3022	974.451676349177	8
2	3025	976.251213047116	7
2	3029	976.448312644559	8
2	3031	977.895449746332	9
2	3032	978.192950349695	8
2	3035	979.454016862645	7
2	3039	980.575759214004	8
2	3041	980.986654327291	9
2	3042	981.12704270745	8
2	3045	982.887129454895	7
2	3048	984.190659084379	6
2	3052	984.925841602287	7
2	3053	986.017582200303	6
2	3056	987.3388934348	5
2	3060	987.922182976414	6
2	3062	988.182428935271	7
2	3063	988.782046619825	6
2	3067	989.286898781674	7
2	3068	990.14249940107	6
2	3071	991.649644608818	5
2	3074	993.063588342838	4
2	3078	993.491203718011	5
2	3080	993.527341882646	6
2	3082	994.098038826737	7
2	3083	994.450631042033	6
2	3086	995.790076275378	5
2	3090	996.090725663495	6
2	3094	996.392798287774	7
2	3096	996.435553270332	8
2	3097	997.054777197189	7
2	3101	998.454748233727	8
2	3102	998.46097276511	7
2	3105	999.988952456995	6
2	3109	1001.643888047894	7
2	3110	1001.716692956931	6
2	3114	1002.279132456654	7
2	3116	1003.371763484405	8
2	3117	1003.702288674398	7
2	3121	1004.021839365077	8
2	3122	1005.248719446382	7
2	3126	1006.250009654503	8
2	3127	1007.0967159942	7
2	3132	1008.555467032476	6
2	3136	1009.815828879461	7
2	3137	1009.850312676674	6
2	3140	1011.315279296806	5
2	3144	1012.679570205048	6
2	3145	1012.915094343593	5
2	3149	1013.120430549854	6
2	3151	1014.517510873694	7
2	3152	1014.791582812575	6
2	3156	1015.736862350101	7
2	3157	1016.034460572732	6
2	3160	1017.277499432509	5
2	3163	1018.632806933132	4
2	3166	1020.372850119342	3
2	3169	1022.290202859995	2
2	3173	1022.418703890295	3
2	3174	1023.856956946869	2
2	3178	1024.404280732642	3
2	3179	1025.166517305952	2
2	3183	1025.605245218208	3
2	3185	1026.438932100553	4
2	3187	1026.727074295648	5
2	3188	1027.139929394816	4
2	3191	1029.078074807507	3
2	3194	1030.366770771538	2
2	3199	1031.826115513613	1
2	3202	1033.197294066866	0
2	3206	1033.378023888751	1
2	3208	1033.921972100966	2
2	3210	1034.101634872337	3
2	3211	1034.865621834827	2
2	3215	1035.277396767088	3
2	3217	1035.666352384417	4
2	3218	1036.372953829375	3
2	3221	1038.169929034282	2
2	3225	1038.609884369423	3
2	3226	1039.516317733396	2
2	3230	1040.799932428681	3
2	3231	1041.106178525854	2
2	3234	1042.535747076403	1
2	3238	1043.979426883735	2
2	3239	1044.244048242848	1
2	3243	1044.419417800281	2
2	3244	1045.992219599727	1
2	3248	1046.747425281033	2
2	3249	1047.51483868679	1
2	3253	1048.461260744793	2
2	3254	1049.280719466898	1
2	3258	1049.988541603709	2
2	3259	1051.208851142246	1
2	3263	1051.375826493765	2
2	3265	1051.534487854168	3
2	3267	1051.572945940244	4
2	3269	1052.330324625641	5
2	3270	1053.126369137522	4
2	3274	1054.488240273322	5
2	3275	1055.073969514873	4
2	3279	1055.755057021894	5
2	3280	1056.714653470758	4
2	3284	1057.901036546189	5
2	3285	1058.206255461853	4
2	3288	1060.061442269217	3
2	3291	1061.45347803032	2
2	3295	1061.576680856192	3
2	3296	1062.683671261016	2
2	3300	1063.817979244962	3
2	3302	1064.108319900788	4
2	3303	1064.317415548321	3
2	3307	1065.714783219878	4
2	3308	1066.163952735644	3
2	3312	1066.618468337299	4
2	3314	1067.648109404487	5
2	3315	1067.933076834325	4
2	3321	1068.446069744999	5
2	3322	1069.398140367698	4
2	3325	1071.235373020936	3
2	3329	1071.269769864095	4
2	3331	1072.569548021518	5
2	3332	1073.206913437341	4
2	3336	1074.129980773319	5
2	3337	1075.070968120006	4
2	3341	1075.857235500781	5
2	3342	1076.302131754738	4
2	3346	1076.507512683202	5
2	3347	1077.657053907794	4
2	3351	1077.988480128292	5
2	3353	1078.316411247123	6
2	3355	1078.59668953738	7
2	3356	1079.049949652535	6
2	3360	1079.205463523462	7
2	3361	1080.649684973826	6
2	3365	1081.822716038667	7
2	3366	1082.247846083549	6
2	3370	1083.050353508858	7
2	3372	1083.784172555185	8
2	3373	1083.923998429646	7
2	3377	1084.59761178869	8
2	3378	1085.22524255572	7
2	3382	1085.564308774473	8
2	3383	1086.5457685305	7
2	3386	1088.370292395745	6
2	3390	1089.091869215314	7
2	3391	1090.248753279094	6
2	3395	1090.619028693356	7
2	3396	1091.451242449154	6
2	3400	1092.182648922248	7
2	3401	1093.119297692385	6
2	3404	1094.752736662906	5
2	3407	1096.616266553309	4
2	3410	1098.490221801605	3
2	3414	1098.908148917525	4
2	3415	1099.820138468426	3
2	3419	1100.26948120269	4
2	3420	1101.775998747368	3
2	3423	1103.5181753915	2
2	3426	1105.197023775262	1
2	3430	1106.032555677021	2
2	3431	1107.174686500077	1
2	3435	1107.183294786349	2
2	3436	1108.383825766128	1
2	3440	1108.927084170303	2
2	3441	1110.154180580583	1
2	3444	1111.774124334958	0
2	3448	1113.17178548145	1
2	3449	1113.443433439751	0
2	3453	1113.83315488215	1
2	3454	1114.818954799902	0
2	3458	1114.858994162306	1
2	3460	1114.886743850503	2
2	3461	1116.634094073084	1
2	3465	1116.826010982392	2
2	3466	1118.1094413629	1
2	3470	1118.660837300884	2
2	3471	1119.938826993873	1
2	3474	1121.728637004478	0
2	3481	1123.695742807494	1
2	3483	1124.019162264707	2
2	3484	1125.160583790971	1
2	3487	1127.088531146778	0
2	3494	1129.289428277854	1
2	3495	1129.853766470795	0
2	3504	1131.995896605742	1
2	3505	1133.432459520196	0
2	3512	1135.450057393716	1
2	3513	1136.294111833183	0
2	3537	1143.309639681198	1
2	3538	1143.618938978037	0
2	3547	1146.98092892296	1
2	3548	1147.154540584257	0
2	3552	1148.655302551418	1
2	3553	1149.065906167237	0
2	3557	1149.274594188939	1
2	3559	1150.441247968964	2
2	3560	1150.65813351704	1
2	3563	1152.610872083178	0
2	3567	1153.332222087012	1
2	3568	1154.190834704435	0
2	3572	1155.968971673362	1
2	3573	1156.052310206017	0
2	3577	1156.497381761849	1
2	3579	1156.795128238446	2
2	3581	1157.458556828645	3
2	3582	1157.727697526126	2
2	3585	1159.553442663721	1
2	3589	1160.375195580021	2
2	3590	1161.084182320371	1
2	3593	1162.97466367951	0
2	3600	1165.850517661236	1
2	3601	1166.543245218157	0
2	3605	1167.060245055685	1
2	3606	1168.457850256211	0
2	3610	1170.026826206089	1
2	3611	1170.065731187745	0
2	3615	1171.355430892412	1
2	3616	1171.553839361875	0
2	3625	1172.902936034538	1
2	3626	1174.471616575515	0
2	3630	1174.665831264804	1
2	3633	1176.154173525257	0
2	3637	1176.661490099051	1
2	3638	1177.942515455952	0
2	3642	1178.536009602842	1
2	3643	1179.545540948419	0
2	3647	1179.998719408186	1
2	3648	1181.287536426654	0
2	3655	1183.876600195549	1
2	3657	1184.232670836676	2
2	3659	1184.342805621199	3
2	3660	1184.54997510316	2
2	3664	1185.91516759408	3
2	3665	1185.921508243141	2
2	3668	1187.375878979285	1
2	3672	1187.938180284913	2
2	3673	1188.792130830717	1
2	3677	1188.954981428319	2
2	3678	1190.517499479671	1
2	3682	1190.520992309951	2
2	3683	1191.839841049743	1
2	3687	1193.230932944447	2
2	3688	1193.805136937295	1
2	3691	1195.373552698848	0
2	3698	1197.073464816947	1
2	3700	1198.051323056876	2
2	3701	1198.688492804599	1
2	3704	1200.456355612372	0
2	3708	1200.683303753922	1
2	3711	1202.193536252548	0
2	3715	1203.504234827707	1
2	3716	1204.182996321675	0
2	3720	1205.537117776852	1
2	3721	1205.560223646109	0
2	3728	1208.506042752724	1
2	3729	1209.088019783256	0
2	3738	1210.793659040094	1
2	3740	1210.878433057161	2
2	3741	1211.991717291829	1
2	3744	1213.636039966923	0
2	3750	1214.715512269024	1
2	3751	1215.233288677987	0
2	3755	1216.089655079548	1
2	3756	1216.460954736006	0
2	3760	1216.869170704345	1
2	3761	1217.725684297849	0
2	3765	1218.163270122133	1
2	3767	1218.925969478595	2
2	3768	1219.520667591896	1
2	3772	1220.448991723923	2
2	3773	1221.44316039497	1
2	3777	1221.680720881773	2
2	3778	1223.053570658546	1
2	3781	1224.471625701916	0
2	3788	1225.895862877185	1
2	3789	1227.253725280445	0
2	3798	1229.254354407677	1
2	3799	1230.756665261481	0
2	3805	1231.783151950824	1
2	3806	1232.732151865605	0
2	3813	1235.452951692093	1
2	3814	1236.045861963015	0
2	3821	1238.069687311619	1
2	3823	1238.131435342718	2
2	3826	1239.214673111234	1
2	3829	1240.647684528139	0
2	3835	1242.07732796631	1
2	3836	1242.42902694216	0
2	3888	1261.80786293554	1
2	3893	1263.007233389298	0
2	3907	1266.778856158874	1
2	3908	1267.729866673628	0
2	3917	1269.610744184376	1
2	3919	1270.443539391584	2
2	3920	1270.586395211534	1
2	3925	1271.846655878813	0
2	3931	1272.670683312614	1
2	3932	1273.342193104715	0
2	3936	1273.87448666621	1
2	3937	1275.277001225592	0
2	3944	1276.993253924503	1
2	3946	1277.941686244099	2
2	3947	1278.532414414191	1
2	3950	1279.988189449364	0
2	3954	1280.304927178278	1
2	3956	1280.858611160123	2
2	3960	1281.387019871131	3
2	3961	1281.632512171397	2
2	3964	1283.519776071625	1
2	3968	1285.123130392361	2
2	3969	1285.385600941459	1
2	3972	1287.015993054228	0
2	3976	1287.41559394611	1
2	3977	1288.439231893996	0
2	3984	1290.748856067248	1
2	3986	1291.21040589434	2
2	3987	1291.271099280583	1
2	3990	1292.511220324243	0
2	3997	1295.085339490702	1
2	3998	1295.693835472146	0
2	4007	1298.016696081655	1
2	4008	1299.359794715436	0
2	4015	1300.671673662683	1
2	4017	1301.634643540222	2
2	4018	1301.889725978876	1
2	4023	1303.844423337298	0
2	4027	1304.268570048108	1
2	4030	1305.434936843643	0
2	4034	1305.722332381567	1
2	4036	1306.966246032012	2
2	4037	1307.302284838462	1
2	4040	1308.866480336169	0
2	4047	1310.596011389065	1
2	4048	1311.938051512481	0
2	4054	1313.297833088764	1
2	4055	1313.462087132425	0
2	4059	1314.678302253668	1
2	4061	1314.815777759065	2
2	4062	1315.203833973237	1
2	4066	1315.838748953723	2
2	4067	1317.003754765928	1
2	4071	1317.538909849549	2
2	4072	1318.798313073456	1
2	4075	1320.04862963745	0
2	4090	1325.287044513158	1
2	4092	1325.961461823407	2
2	4093	1326.106677106781	1
2	4098	1327.994643956808	0
2	4105	1330.102317105282	1
2	4107	1330.489148616292	2
2	4108	1331.049004449895	1
2	4113	1332.909623759998	0
2	4117	1333.504756538253	1
2	4118	1334.293087369775	0
2	4122	1336.026043015361	1
2	4123	1336.095644410153	0
2	4127	1336.379355797351	1
2	4128	1337.699101456826	0
2	4138	1341.067867140795	1
2	4142	1342.904440187218	2
2	4143	1342.956495347818	1
2	4149	1344.284369163947	2
2	4150	1344.482678214473	1
2	4154	1344.696275273413	2
2	4155	1345.835232043837	1
2	4159	1346.27943891054	2
2	4160	1347.48403169309	1
2	4164	1348.753480025806	2
2	4165	1349.069353490334	1
2	4169	1349.342045381056	2
2	4171	1350.475585890297	3
2	4172	1350.653834520478	2
2	4175	1352.382534651656	1
2	4178	1353.898883202125	0
2	4182	1354.971122576361	1
2	4184	1355.80595332609	2
2	4185	1355.873768762325	1
2	4189	1357.278293973059	2
2	4190	1357.532765184728	1
2	4194	1357.713176049553	2
2	4196	1357.787158035506	3
2	4197	1359.200502257062	2
2	4201	1360.096269230409	3
2	4202	1360.798523327349	2
2	4206	1361.236511405601	3
2	4207	1362.332451596869	2
2	4211	1362.705776929494	3
2	4212	1363.754681592634	2
2	4216	1364.353967721755	3
2	4217	1365.137562190196	2
2	4221	1366.265529965768	3
2	4222	1366.775991672477	2
2	4225	1367.983938459693	1
2	4228	1369.588447853005	0
2	4232	1370.661255597799	1
2	4233	1371.365351935862	0
2	4237	1372.304865679488	1
2	4239	1372.669230438409	2
2	4240	1372.79226259516	1
2	4243	1374.598194993487	0
2	4247	1374.736730676594	1
2	4248	1375.93230793198	0
2	4252	1376.351720521995	1
2	4253	1377.686401865831	0
2	4257	1378.57171253942	1
2	4258	1379.505347296981	0
2	4262	1379.60117273724	1
2	4264	1379.625163655296	2
2	4265	1380.70900076033	1
2	4268	1382.170297295241	0
2	4272	1382.928261654505	1
2	4274	1382.947877379681	2
2	4275	1383.864904703772	1
2	4278	1385.558988376348	0
2	4285	1387.863585556015	1
2	4286	1388.778926483183	0
2	4293	1390.78597785508	1
2	4294	1391.442211967721	0
2	4298	1391.518183946002	1
2	4301	1393.412496164269	0
2	4311	1396.187168896387	1
2	4315	1397.21261096367	2
2	4316	1397.663075249098	1
2	4319	1399.384383878872	0
2	4323	1400.594113951043	1
2	4324	1400.824039493144	0
2	4328	1401.028395099226	1
2	4331	1402.234479527377	0
2	4338	1404.436276647239	1
2	4339	1405.696808028423	0
2	4348	1407.634750341278	1
2	4349	1409.104546843298	0
2	4356	1412.26973006865	1
2	4359	1412.789691092089	0
2	4371	1417.636397554176	1
2	4372	1417.727676169776	0
2	4384	1422.204844506612	1
2	4385	1423.208446370639	0
2	4389	1423.402729888973	1
2	4392	1424.421188480236	0
2	4399	1426.007565409873	1
2	4400	1427.145220059917	0
2	4404	1427.633730394641	1
2	4407	1428.368055591748	0
2	4417	1431.330711998914	1
2	4420	1432.854829869435	0
2	4424	1433.079949422602	1
2	4425	1434.675467006319	0
2	4429	1434.740457963482	1
2	4430	1436.605072784998	0
2	4434	1437.557298342374	1
2	4435	1438.604043467917	0
2	4439	1439.361877760327	1
2	4440	1440.541913509571	0
2	4444	1441.802442655021	1
2	4445	1442.478972861373	0
2	4452	1444.550665089336	1
2	4453	1445.909129894541	0
2	4464	1447.749639371194	1
2	4466	1447.902401961225	2
2	4468	1448.270067634531	3
2	4469	1449.016564827801	2
2	4472	1450.8522660345	1
2	4476	1451.411773332645	2
2	4477	1452.286947066912	1
2	4480	1454.140112734044	0
2	4484	1455.736248409091	1
2	4486	1455.959535817096	2
2	4487	1456.10458775332	1
2	4491	1456.210148461719	2
2	4494	1457.582333178649	1
2	4498	1457.779737198601	2
2	4499	1459.561728209088	1
2	4503	1459.629422527029	2
2	4504	1460.771390224824	1
2	4507	1462.01355783196	0
2	4514	1464.041159471605	1
2	4516	1464.17970198177	2
2	4517	1465.57654686069	1
2	4524	1467.12441001648	0
2	4534	1471.163136312644	1
2	4535	1471.812869859505	0
2	4539	1473.498893968257	1
2	4540	1473.659319337476	0
2	4544	1474.878154392793	1
2	4546	1474.933562423355	2
2	4547	1475.325553497877	1
2	4550	1476.599354865979	0
2	4554	1476.787097294851	1
2	4556	1476.848177138911	2
2	4558	1477.095758346117	3
2	4559	1477.841864787619	2
2	4563	1478.012021551558	3
2	4564	1479.602985654417	2
2	4568	1480.354806542115	3
2	4569	1481.589647769574	2
2	4573	1481.697326046604	3
2	4575	1482.155174056437	4
2	4576	1483.341499707866	3
2	4580	1484.037416078714	4
2	4582	1484.105327282676	5
2	4584	1484.548635686544	6
2	4587	1484.685144849326	5
2	4590	1486.174033880997	4
2	4594	1487.666853776461	5
2	4595	1488.152245046589	4
2	4599	1488.330568991801	5
2	4601	1488.594108652129	6
2	4602	1490.07834001651	5
2	4605	1491.794136369433	4
2	4610	1493.274586278032	3
2	4614	1494.156679088595	4
2	4615	1495.186874672975	3
2	4618	1497.157160981018	2
2	4621	1499.077770712618	1
2	4624	1500.600776453894	0
2	4631	1502.88083291597	1
2	4633	1502.953099325612	2
2	4635	1502.968232908799	3
2	4636	1503.350876433049	2
2	4639	1505.004628377241	1
2	4644	1506.31740926711	0
2	4650	1506.80422499472	1
2	4652	1507.385520222638	2
2	4653	1508.110572985579	1
2	4657	1508.531088231267	2
2	4658	1509.798669238594	1
2	4662	1509.978011763054	2
2	4663	1511.328914038856	1
2	4669	1512.428459997895	2
2	4671	1512.545581004201	3
2	4672	1513.105820771698	2
2	4676	1513.494103743207	3
2	4678	1514.182473884898	4
2	4679	1514.458280925658	3
2	4683	1514.799280992179	4
2	4685	1516.201172427629	5
2	4686	1516.258198523354	4
2	4690	1516.318059232858	5
2	4691	1517.954688821193	4
2	4695	1518.171211465636	5
2	4696	1519.368276651967	4
2	4699	1520.885499029252	3
2	4703	1520.935048553544	4
2	4704	1522.191029576044	3
2	4708	1522.27128606658	4
2	4709	1523.574147510919	3
2	4712	1525.3544679627	2
2	4716	1525.392690756797	3
2	4717	1526.771672002244	2
2	4721	1527.515714636098	3
2	4722	1528.268001034874	2
2	4726	1528.940741419686	3
2	4728	1528.966395040778	4
2	4729	1530.197140117939	3
2	4733	1530.429141633016	4
2	4735	1531.037700646495	5
2	4736	1531.635245059076	4
2	4739	1533.048567438889	3
2	4743	1534.013369123935	4
2	4744	1534.821044277604	3
2	4747	1536.459610468726	2
2	4751	1537.214185325451	3
2	4752	1537.987988836336	2
2	4756	1538.160786759225	3
2	4758	1538.272963182016	4
2	4759	1539.900188602897	3
2	4762	1541.456525442767	2
2	4765	1542.996898208018	1
2	4769	1543.098339687765	2
2	4771	1543.561652379101	3
2	4773	1544.080159189024	4
2	4774	1544.573915887083	3
2	4778	1544.964765470609	4
2	4779	1546.480021614413	3
2	4782	1548.10688196497	2
2	4786	1548.261911393208	3
2	4788	1549.726030288117	4
2	4789	1549.947784043867	3
2	4792	1551.600151800942	2
2	4795	1553.547454689835	1
2	4799	1554.387523904148	2
2	4800	1555.326937988979	1
2	4803	1557.22995646244	0
2	4807	1558.501677213394	1
2	4809	1558.926848061618	2
2	4810	1558.967267881167	1
2	4814	1560.377374888885	2
2	4815	1560.894284621832	1
2	4819	1562.577734068564	2
2	4820	1562.656108836663	1
2	4823	1564.303995744345	0
2	4827	1566.053181706997	1
2	4828	1566.164981040006	0
2	4832	1566.783147790513	1
2	4833	1567.827672345397	0
2	4837	1567.957442471534	1
2	4838	1569.454878326339	0
2	4842	1569.940106325214	1
2	4845	1571.408746721615	0
2	4849	1572.859098496429	1
2	4850	1573.403183672969	0
2	4854	1573.788534557128	1
2	4855	1574.627369149049	0
2	4865	1578.434512377357	1
2	4867	1578.744626382876	2
2	4870	1578.979112540206	1
2	4875	1580.400596390685	0
2	4882	1582.958621632923	1
2	4885	1583.69271659015	0
2	4889	1584.062839686496	1
2	4890	1585.499164685256	0
2	4894	1586.398400056954	1
2	4896	1587.106282995318	2
2	4897	1587.28018214444	1
2	4901	1587.807389991148	2
2	4903	1588.614223948435	3
2	4904	1589.002233526691	2
2	4908	1589.997881766264	3
2	4909	1590.70735398887	2
2	4913	1591.766071555825	3
2	4914	1592.583145512848	2
2	4918	1593.361578761315	3
2	4919	1593.831592290497	2
2	4923	1594.348937222157	3
2	4924	1595.250551115184	2
2	4927	1597.117485983132	1
2	4931	1597.173930416704	2
2	4933	1597.299147043963	3
2	4934	1598.340795918016	2
2	4937	1599.952530553585	1
2	4940	1601.929754380902	0
2	4946	1602.295453260218	1
2	4947	1603.210364311209	0
2	4951	1604.05986062335	1
2	4952	1604.61152237097	0
2	4956	1605.09791388976	1
2	4957	1606.431252633987	0
2	4961	1606.639385191508	1
2	4962	1607.777530112883	0
2	4971	1611.495711502092	1
2	4972	1611.622069504505	0
2	4976	1611.635986138051	1
2	4977	1613.246545025913	0
2	4984	1615.274348467293	1
2	4988	1616.001621016766	2
2	4989	1616.680146383515	1
2	4994	1618.120734103045	0
2	5001	1619.945463738511	1
2	5002	1620.670828321411	0
2	5006	1621.130297933051	1
2	5008	1621.281611145198	2
2	5009	1622.162531220748	1
2	5013	1622.597237965941	2
2	5014	1623.666712101384	1
2	5018	1623.957901559396	2
2	5019	1625.078193154952	1
2	5024	1626.955066882467	0
2	5028	1628.405480016385	1
2	5029	1628.920276332667	0
2	5047	1636.256618152455	1
2	5048	1636.579886290637	0
2	5055	1638.926803116795	1
2	5056	1640.065324693193	0
2	5066	1643.528567504942	1
2	5067	1644.417611723973	0
2	5071	1645.234469853698	1
2	5072	1645.618072457633	0
2	5076	1646.625355772219	1
2	5079	1647.610363334066	0
2	5083	1648.205192903159	1
2	5084	1649.532712094134	0
2	5101	1655.025678594576	1
2	5102	1655.86298653113	0
2	5106	1657.106900288015	1
2	5107	1657.590224415644	0
2	5114	1660.060455754645	1
2	5116	1660.253062154762	2
2	5117	1660.951658752396	1
2	5124	1662.810706046059	0
2	5128	1663.347630499822	1
2	5131	1664.124030372336	0
2	5135	1664.870301339615	1
2	5136	1665.712680625192	0
2	5140	1665.850047229467	1
2	5143	1667.450824297986	0
2	5152	1669.410856388015	1
2	5153	1671.092812529042	0
2	5157	1671.229648459014	1
2	5158	1672.63268526832	0
2	5162	1673.220579744266	1
2	5165	1674.067849263385	0
2	5174	1677.173292913363	1
2	5175	1677.375756909534	0
2	5182	1679.282369039688	1
2	5183	1680.738159522064	0
2	5187	1681.708644593372	1
2	5188	1682.620467451982	0
2	5197	1684.701097145919	1
2	5198	1686.448223315015	0
2	5205	1688.637738537499	1
2	5206	1689.30414720422	0
2	5213	1691.34186827167	1
2	5214	1692.735514371492	0
2	5220	1693.500825051286	1
2	5221	1694.39463579955	0
2	5225	1695.256273538133	1
2	5227	1695.378490900261	2
2	5228	1695.84582399337	1
2	5232	1696.693656022472	2
2	5233	1697.766630676225	1
2	5236	1699.361624584742	0
2	5240	1700.444664414703	1
2	5241	1701.052306826435	0
2	5245	1702.142018894807	1
2	5247	1702.531025814324	2
2	5248	1702.586063005611	1
2	5252	1703.191203498155	2
2	5253	1703.853882900648	1
2	5256	1705.220891494699	0
2	5263	1706.653980997676	1
2	5264	1708.233908043824	0
2	5268	1709.675532000906	1
2	5269	1709.713118408456	0
2	5273	1710.892546683679	1
2	5274	1711.562687584035	0
2	5278	1712.017967223063	1
2	5281	1712.78341836708	0
2	5288	1715.227479006319	1
2	5290	1715.841842081067	2
2	5291	1715.885279669262	1
2	5294	1717.564702167943	0
2	5300	1718.455952209021	1
2	5301	1719.521491832495	0
2	5308	1722.337264826681	1
2	5309	1722.419012988754	0
2	5318	1724.077493905176	1
2	5320	1724.982799654571	2
2	5321	1725.05717300123	1
2	5325	1725.891501308965	2
2	5327	1726.003866191018	3
2	5328	1727.03427424191	2
2	5332	1727.19307991888	3
2	5335	1728.312787788571	2
2	5338	1730.153909949423	1
2	5342	1731.261597881583	2
2	5343	1731.924026284577	1
2	5346	1733.591681526439	0
2	5350	1734.52646416094	1
2	5351	1735.264130277956	0
2	5364	1741.287903689704	1
2	5365	1741.675460862206	0
2	5376	1744.971897950433	1
2	5377	1745.317720409693	0
2	5396	1751.293991841925	1
2	5397	1752.678419018561	0
2	5408	1754.632684365557	1
2	5411	1755.65083069841	0
2	5418	1757.415727672496	1
2	5421	1759.087403027179	0
2	5438	1764.948095282203	1
2	5439	1765.680866484742	0
2	5446	1767.196301978175	1
2	5449	1769.023259557064	0
2	5453	1769.168633965846	1
2	5458	1770.941769375864	0
2	5462	1770.989717892037	1
2	5463	1772.941444206636	0
2	5467	1773.992783975515	1
2	5468	1774.580758408669	0
2	5475	1776.750592477964	1
2	5476	1778.125788238856	0
2	5485	1779.941341299366	1
2	5486	1781.488505022811	0
2	5493	1783.227087444476	1
2	5494	1784.708366077417	0
2	5512	1789.442034141736	1
2	5513	1789.604083070741	0
2	5522	1791.229530118457	1
2	5523	1792.391128191748	0
2	5529	1793.803908604001	1
2	5530	1794.224339227961	0
2	5544	1798.468169248223	1
2	5545	1799.059093909176	0
2	5554	1801.456014346717	1
2	5555	1802.608357551345	0
2	5572	1808.012987708761	1
2	5574	1808.598618839615	2
2	5575	1809.013428640016	1
2	5578	1810.276638825074	0
2	5582	1810.444116674172	1
2	5585	1811.873021897137	0
2	5589	1812.76167092266	1
2	5590	1813.433915902883	0
2	5594	1814.681328397762	1
2	5595	1815.330536134936	0
2	5599	1816.125543131595	1
2	5601	1816.719541628403	2
2	5602	1816.924516105302	1
2	5605	1818.67033644116	0
2	5609	1818.77384209943	1
2	5610	1819.979189188243	0
2	5614	1820.043706077145	1
2	5616	1821.070876141309	2
2	5618	1821.192892871663	3
2	5619	1821.960621075728	2
2	5623	1822.525334550991	3
2	5624	1823.630421783053	2
2	5627	1824.86631782467	1
2	5631	1825.524951824077	2
2	5633	1826.65748300338	3
2	5634	1826.707142731384	2
2	5637	1828.528558037267	1
2	5641	1828.914237080216	2
2	5642	1830.025126450346	1
2	5645	1831.68009981236	0
2	5649	1832.708765245239	1
2	5650	1833.582931430662	0
2	5654	1835.243797189323	1
2	5655	1835.494061105164	0
2	5661	1836.643569087512	1
2	5662	1836.941077186564	0
2	5666	1837.30839544031	1
2	5667	1838.73814392856	0
2	5674	1840.988131658401	1
2	5676	1841.070258459598	2
2	5677	1842.359456781881	1
2	5680	1844.134163872736	0
2	5684	1844.346579149961	1
2	5685	1845.438332984062	0
2	5689	1845.78177324398	1
2	5691	1846.3436866696	2
2	5694	1846.949500008883	1
2	5698	1847.270152265325	2
2	5699	1848.187836437324	1
2	5702	1849.907857841277	0
2	5706	1850.549441946012	1
2	5707	1851.407873819047	0
2	5711	1851.634224861824	1
2	5712	1852.908154025697	0
2	5716	1853.236502829919	1
2	5718	1853.243266910406	2
2	5719	1854.451123476983	1
2	5723	1854.858229670451	2
2	5724	1855.856263006874	1
2	5727	1857.516381283686	0
2	5731	1858.030676980289	1
2	5733	1858.06001830582	2
2	5734	1858.934347707801	1
2	5738	1859.229352183639	2
2	5739	1860.226769724139	1
2	5743	1860.321268259394	2
2	5744	1862.217824948602	1
2	5748	1862.673227916383	2
2	5750	1863.673568208076	3
2	5751	1863.714770514355	2
2	5754	1865.660730627575	1
2	5758	1865.95239580077	2
2	5760	1866.800491456102	3
2	5761	1867.184288323321	2
2	5765	1868.13272162071	3
2	5766	1868.62411827913	2
2	5769	1869.914703191095	1
2	5773	1869.956474400898	2
2	5774	1871.758334342041	1
2	5778	1872.18458766763	2
2	5780	1872.955854437197	3
2	5781	1873.432873429009	2
2	5785	1873.846420241011	3
2	5786	1875.184648885974	2
2	5790	1875.391767942339	3
2	5792	1876.011288885338	4
2	5794	1876.160011488893	5
2	5795	1877.012587910169	4
2	5798	1878.25656736868	3
2	5802	1878.453789636421	4
2	5803	1880.053751614341	3
2	5807	1880.369017393455	4
2	5808	1881.309611658403	3
2	5812	1881.82658669151	4
2	5813	1882.512832825654	3
2	5816	1883.85612763504	2
2	5820	1884.293808930531	3
2	5822	1885.334401022328	4
2	5823	1885.355535673001	3
2	5826	1887.161038507917	2
2	5830	1887.548200886382	3
2	5831	1888.853225334385	2
2	5834	1890.551669703075	1
2	5838	1891.096235233251	2
2	5840	1891.661705283209	3
2	5842	1891.678552034446	4
2	5843	1891.923397596018	3
2	5847	1893.217207627345	4
2	5848	1893.545628125989	3
2	5852	1894.882263933988	4
2	5855	1895.329983869777	3
2	5858	1896.901426445157	2
2	5861	1898.361978949071	1
2	5865	1898.858132630432	2
2	5867	1898.877254348168	3
2	5869	1900.056915274099	4
2	5870	1900.083907337883	3
2	5873	1901.85336389842	2
2	5876	1903.52737604531	1
2	5879	1905.351668201224	0
2	5883	1905.938017000057	1
2	5885	1906.070425281395	2
2	5887	1906.420353457372	3
2	5888	1907.116522822739	2
2	5892	1908.332654366154	3
2	5893	1908.470967168943	2
2	5898	1910.423763746233	1
2	5902	1910.454388668878	2
2	5903	1911.656645857939	1
2	5907	1912.362376218864	2
2	5908	1913.471395383426	1
2	5911	1914.73606525606	0
2	5915	1916.401752081173	1
2	5916	1916.440686626383	0
2	5925	1918.530597034253	1
2	5926	1920.063844472752	0
2	5930	1921.055258207936	1
2	5931	1921.501929513388	0
2	5935	1921.516158534828	1
2	5937	1921.910914928475	2
2	5939	1921.919564080914	3
2	5941	1922.077539084067	4
2	5943	1922.277932388138	5
2	5944	1923.296071202331	4
2	5949	1924.855924148694	3
2	5953	1925.270792500584	4
2	5955	1925.704566549676	5
2	5957	1925.730999877276	6
2	5958	1926.483480583527	5
2	5962	1927.406394554776	6
2	5963	1928.124049318232	5
2	5967	1928.204347646689	6
2	5968	1929.555796918482	5
2	5972	1930.885434985715	6
2	5973	1931.43452387622	5
2	5977	1932.467091857549	6
2	5978	1932.80915121606	5
2	5981	1934.181928286724	4
2	5984	1935.696421320014	3
2	5987	1937.176465461612	2
2	5990	1939.169229546026	1
2	5993	1940.381508834869	0
2	5997	1940.609169350306	1
2	5999	1941.756676259207	2
2	6000	1942.257680928544	1
2	6003	1943.690812491276	0
2	6018	1948.793259755173	1
2	6020	1949.235504242696	2
2	6022	1949.992949143545	3
2	6024	1950.237322198464	4
2	6025	1950.33237450982	3
2	6031	1951.099220960069	4
2	6032	1951.936101607071	3
2	6036	1952.087378523854	4
2	6038	1952.709816592211	5
2	6039	1953.422931020545	4
2	6042	1955.114664595599	3
2	6046	1955.360183736925	4
2	6048	1956.499397168672	5
2	6049	1957.019058288659	4
2	6053	1957.652733769448	5
2	6055	1958.04846770423	6
2	6056	1958.268035902667	5
2	6060	1959.041627985574	6
2	6061	1959.701425307828	5
2	6064	1961.081885575528	4
2	6067	1962.689131340037	3
2	6071	1963.17340893686	4
2	6073	1963.211405371101	5
2	6075	1963.435695944741	6
2	6076	1963.936143540616	5
2	6080	1965.215587246825	6
2	6082	1965.553034409428	7
2	6083	1965.677257435421	6
2	6086	1967.55770711715	5
2	6090	1967.640514816462	6
2	6092	1967.7079633824	7
2	6093	1969.003602946574	6
2	6096	1970.687667329075	5
2	6100	1971.594667069741	6
2	6101	1971.933207236255	5
2	6105	1972.79924528429	6
2	6106	1973.226967072884	5
2	6110	1973.346455033024	6
2	6111	1974.931215335267	5
2	6115	1975.814002814784	6
2	6116	1976.3959849939	5
2	6120	1976.477033227419	6
2	6121	1978.127130721721	5
2	6124	1979.714402168269	4
2	6128	1980.274272151546	5
2	6130	1981.281224579615	6
2	6131	1981.491313134904	5
2	6135	1981.60590944557	6
2	6136	1983.303919071357	5
2	6140	1984.851832439178	6
2	6141	1985.04670555501	5
2	6145	1985.865302344806	6
2	6147	1985.913495619548	7
2	6149	1986.340836891572	8
2	6150	1986.957767432395	7
2	6154	1987.823002440235	8
2	6156	1988.586146021391	9
2	6157	1988.781573120717	8
2	6161	1989.376838823903	9
2	6162	1990.372467997696	8
2	6165	1991.997481851306	7
2	6169	1992.3647137735	8
2	6171	1992.679920923079	9
2	6172	1993.256448962938	8
2	6176	1994.083422529994	9
2	6177	1994.817183471497	8
2	6183	1995.62930392806	9
2	6185	1996.167250364315	10
2	6186	1996.271155112635	9
2	6190	1997.226522840019	10
2	6191	1997.779044940535	9
2	6194	1999.240314350303	8
2	6198	2000.064242317981	9
2	6200	2000.239756897492	10
2	6201	2000.565588241655	9
2	6205	2000.907605209578	10
2	6207	2001.752788218707	11
2	6208	2002.063794817615	10
2	6212	2002.093089290665	11
2	6213	2003.870542297724	10
2	6216	2005.153278342474	9
2	6219	2006.739275607865	8
2	6222	2008.161646251965	7
2	6225	2009.823540420483	6
2	6229	2011.107436336141	7
2	6230	2011.10799327756	6
2	6234	2011.921200797023	7
2	6236	2011.965626944287	8
2	6238	2012.596738809896	9
2	6239	2012.966515794049	8
2	6242	2014.396928388464	7
2	6246	2014.827025655631	8
2	6248	2015.27568076928	9
2	6250	2015.502463099743	10
2	6251	2015.98172848581	9
2	6255	2017.744750313008	10
2	6256	2017.954982910516	9
2	6260	2018.02665858505	10
2	6261	2019.780574749993	9
2	6264	2021.002830600576	8
2	6268	2021.408083422224	9
2	6270	2021.728792109625	10
2	6271	2022.686609429331	9
2	6274	2024.336525851698	8
2	6278	2024.391702676053	9
2	6279	2026.313846626529	8
2	6283	2027.534901132494	9
2	6284	2027.744064536901	8
2	6288	2027.895356313168	9
2	6289	2029.417141498463	8
2	6293	2031.002891069806	9
2	6294	2031.061168372096	8
2	6297	2032.46650653726	7
2	6301	2032.562944651598	8
2	6302	2033.932017037296	7
2	6305	2035.732929842198	6
2	6309	2035.829428405758	7
2	6310	2037.605602272438	6
2	6314	2038.212137889838	7
2	6315	2039.573485277245	6
2	6319	2039.666488073576	7
2	6321	2040.280814653617	8
2	6323	2040.613011787076	9
2	6324	2041.254619912083	8
2	6328	2042.654183644461	9
2	6329	2042.79994733541	8
2	6332	2044.742234939548	7
2	6336	2045.518742643505	8
2	6338	2045.546427449769	9
2	6339	2046.574836836408	8
2	6343	2047.482842131524	9
2	6344	2048.008762913036	8
2	6348	2048.06292804444	9
2	6350	2049.017226857336	10
2	6351	2049.334079648021	9
2	6355	2049.617481665326	10
2	6356	2050.867444113295	9
2	6359	2052.208256354209	8
2	6363	2052.783729259354	9
2	6364	2053.758763636675	8
2	6368	2055.037709979891	9
2	6369	2055.449559821215	8
2	6373	2055.549493115833	9
2	6375	2055.938267678904	10
2	6376	2056.958822377611	9
2	6380	2057.43179197068	10
2	6382	2057.518679129516	11
2	6383	2058.747599966105	10
2	6387	2059.56170635333	11
2	6388	2060.644604837362	10
2	6392	2061.291292749666	11
2	6395	2062.565183503393	10
2	6398	2064.304999352086	9
2	6402	2065.08756331878	10
2	6404	2065.492675006614	11
2	6405	2065.623005739253	10
2	6409	2065.819120109962	11
2	6410	2067.061768827055	10
2	6413	2068.871453515094	9
2	6419	2070.11439037727	10
2	6420	2070.454736418117	9
2	6424	2070.908342968867	10
2	6425	2071.91026965997	9
2	6428	2073.184326892372	8
2	6432	2073.378586911696	9
2	6433	2074.803520172674	8
2	6437	2075.232393171969	9
2	6438	2076.635213758264	8
2	6442	2077.332943124723	9
2	6443	2078.076238616955	8
2	6446	2079.861841428493	7
2	6449	2081.290744536024	6
2	6453	2081.481071167627	7
2	6455	2081.884759579162	8
2	6457	2082.330112764753	9
2	6459	2082.442959392738	10
2	6460	2082.849680772078	9
2	6464	2083.153483303081	10
2	6465	2084.054846696955	9
2	6468	2085.50677302203	8
2	6472	2085.651577978837	9
2	6474	2085.764064197414	10
2	6476	2087.408041666051	11
2	6477	2087.452891047139	10
2	6480	2088.656865322989	9
2	6483	2090.181103327524	8
2	6486	2091.424093656827	7
2	6490	2091.672552833947	8
2	6492	2091.831155962351	9
2	6494	2092.333534455162	10
2	6495	2093.253167359185	9
2	6499	2093.336175409869	10
2	6501	2094.177125241973	11
2	6502	2094.862569046606	10
2	6505	2096.075009554092	9
2	6508	2097.876038829822	8
2	6512	2098.595956849401	9
2	6515	2099.395984844144	8
2	6518	2101.257545788798	7
2	6521	2103.126069256875	6
2	6524	2104.652694934446	5
2	6528	2106.22137094983	6
2	6529	2106.501944040719	5
2	6533	2107.046672992018	6
2	6535	2107.326705739035	7
2	6536	2107.9329041824	6
2	6540	2108.183025986032	7
2	6542	2108.213604393625	8
2	6543	2109.388367600951	7
2	6546	2110.625283856157	6
2	6550	2110.777588467602	7
2	6551	2112.540730387743	6
2	6555	2112.591143598409	7
2	6557	2112.641455545621	8
2	6558	2113.866347412418	7
2	6562	2114.276394183632	8
2	6563	2115.253946332845	7
2	6567	2116.363401323487	8
2	6569	2116.42445797926	9
2	6570	2117.222565594155	8
2	6574	2117.34124693328	9
2	6576	2118.593585974102	10
2	6577	2118.903618674937	9
2	6581	2119.199890231449	10
2	6582	2120.376601616877	9
2	6586	2121.66535541846	10
2	6588	2122.068630368151	11
2	6589	2122.079956039625	10
2	6593	2122.293429848062	11
2	6594	2123.419457249741	10
2	6598	2124.04772667298	11
2	6599	2124.994146649378	10
2	6602	2126.383241274791	9
2	6606	2127.51369953831	10
2	6608	2127.571867294387	11
2	6609	2127.960025083484	10
2	6612	2129.776836746024	9
2	6616	2130.841329775041	10
2	6617	2131.09838536291	9
2	6621	2132.557407463422	10
2	6622	2133.026008747915	9
2	6626	2133.910321852994	10
2	6628	2134.155404230072	11
2	6629	2135.023115739437	10
2	6633	2135.586874157648	11
2	6635	2135.731030262861	12
2	6636	2136.27398802566	11
2	6639	2137.952885723511	10
2	6643	2138.102508737406	11
2	6644	2139.747022230016	10
2	6648	2140.580159130976	11
2	6649	2141.466441880936	10
2	6653	2142.948283296164	11
2	6654	2143.246465998167	10
2	6657	2145.159506430501	9
2	6660	2146.505431947509	8
2	6664	2147.125460105884	9
2	6666	2148.06939528545	10
2	6667	2148.411863797182	9
2	6671	2148.944305811835	10
2	6672	2149.876167904982	9
2	6675	2151.357724214369	8
2	6678	2152.607315524691	7
2	6682	2153.101193290216	8
2	6684	2154.031925379765	9
2	6685	2154.497261912585	8
2	6689	2155.311430472611	9
2	6691	2155.372921638868	10
2	6692	2155.889179775142	9
2	6696	2157.657320048192	10
2	6697	2157.670588707016	9
2	6701	2158.592973937773	10
2	6702	2159.442181840749	9
2	6706	2160.025334052148	10
2	6707	2161.191053937586	9
2	6711	2161.281541312484	10
2	6713	2161.284798829072	11
2	6715	2161.570733813927	12
2	6716	2162.584154060135	11
2	6720	2162.721219505278	12
2	6722	2163.990651718676	13
2	6723	2164.525735697547	12
2	6727	2165.7477533764	13
2	6728	2166.195707427362	12
2	6732	2166.989234070317	13
2	6733	2167.946122461395	12
2	6737	2169.041103954874	13
2	6738	2169.311086585583	12
2	6741	2170.878746617423	11
2	6745	2171.115705621334	12
2	6746	2172.204182676622	11
2	6749	2174.146841144772	10
2	6753	2174.290993960204	11
2	6754	2175.673940662691	10
2	6758	2175.835216524309	11
2	6760	2176.629157145695	12
2	6761	2177.004914642894	11
2	6765	2178.196409216176	12
2	6766	2178.771608393477	11
2	6770	2179.401528060999	12
2	6772	2180.122191996855	13
2	6773	2180.565710273409	12
2	6777	2180.728984669136	13
2	6781	2181.947133539638	14
2	6782	2182.527666076483	13
2	6786	2183.067870262752	14
2	6788	2184.292501495904	15
2	6789	2184.308997581923	14
2	6792	2186.022704146267	13
2	6796	2186.759358711894	14
2	6797	2187.444808652648	13
2	6800	2188.976990963356	12
2	6804	2189.059267397037	13
2	6807	2190.263274320425	12
2	6811	2191.082531704477	13
2	6812	2191.816543087387	12
2	6816	2192.382508487327	13
2	6818	2192.505732263934	14
2	6819	2193.199276251742	13
2	6822	2194.537834304408	12
2	6826	2194.713443543679	13
2	6828	2195.880329689858	14
2	6829	2196.088647005544	13
2	6833	2196.734351100764	14
2	6834	2197.898081207857	13
2	6838	2198.719489520673	14
2	6839	2199.20535286481	13
2	6843	2199.264397398912	14
2	6845	2199.685774826571	15
2	6846	2201.024344518804	14
2	6850	2201.682534621736	15
2	6851	2202.575480079302	14
2	6854	2204.261402433575	13
2	6857	2206.06107852573	12
2	6861	2207.192332786715	13
2	6862	2207.550299352244	12
2	6865	2209.473780954466	11
2	6869	2210.419563891612	12
2	6871	2210.456076717552	13
2	6872	2211.458372865268	12
2	6876	2211.920622457944	13
2	6878	2212.433708399723	14
2	6879	2212.686092981347	13
2	6883	2213.935466137365	14
2	6884	2214.398947750428	13
2	6888	2215.027297305374	14
2	6890	2215.735602866775	15
2	6891	2215.808843217814	14
2	6895	2216.661794085295	15
2	6896	2217.541988980794	14
2	6899	2219.405226480426	13
2	6903	2219.563924533299	14
2	6904	2220.970804787637	13
2	6909	2222.178894743719	12
2	6913	2223.251086134182	13
2	6914	2223.526392651745	12
2	6918	2224.498269647536	13
2	6919	2225.021327998326	12
2	6923	2225.240247346515	13
2	6925	2226.849394728692	14
2	6926	2226.968068042234	13
2	6929	2228.66750685072	12
2	6932	2230.350695383572	11
2	6936	2231.064557907039	12
2	6937	2232.188601561845	11
2	6941	2233.062785313557	12
2	6943	2233.271218242589	13
2	6944	2234.051595480391	12
2	6947	2235.525285649882	11
2	6951	2236.574187216862	12
2	6952	2237.22454949359	11
2	6956	2237.546633880264	12
2	6958	2237.976033912451	13
2	6960	2238.012035820268	14
2	6962	2238.265068778956	15
2	6963	2239.016393789859	14
2	6967	2239.246520264495	15
2	6969	2239.253600976967	16
2	6971	2239.49299879629	17
2	6972	2240.322960501747	16
2	6975	2241.879704959901	15
2	6979	2242.506813846561	16
2	6980	2243.466796308408	15
2	6984	2244.627831234076	16
2	6985	2244.690912305216	15
2	6988	2245.897833282339	14
2	6992	2247.183427356105	15
2	6993	2247.743079061645	14
2	6997	2248.986854105333	15
2	6998	2249.645730335849	14
2	7002	2250.172208634277	15
2	7003	2251.063214809659	14
2	7007	2251.364610747121	15
2	7008	2252.828064281519	14
2	7011	2254.586624238666	13
2	7015	2255.086092095128	14
2	7016	2256.156983825218	13
2	7019	2257.818120052133	12
2	7023	2257.85195311765	13
2	7025	2258.834969955377	14
2	7026	2259.75242630991	13
2	7030	2259.911932554383	14
2	7032	2260.678081351498	15
2	7033	2261.658943580117	14
2	7037	2261.772298295072	15
2	7039	2261.782884053409	16
2	7042	2263.27984260733	15
2	7046	2263.624694409722	16
2	7047	2264.894313094418	15
2	7050	2266.845214659187	14
2	7054	2267.027349021521	15
2	7056	2267.030076218803	16
2	7058	2267.274508409799	17
2	7060	2268.260868360483	18
2	7061	2268.363009293589	17
2	7065	2268.855608137322	18
2	7066	2269.742574122201	17
2	7070	2269.888807950838	18
2	7071	2271.722308374967	17
2	7077	2272.052823861065	18
2	7079	2272.15465723586	19
2	7080	2273.558957284528	18
2	7084	2274.001138352609	19
2	7085	2275.16986561476	18
2	7089	2275.344350687171	19
2	7090	2276.642570047665	18
2	7093	2277.84376277535	17
2	7097	2278.187796526274	18
2	7098	2279.738046208981	17
2	7102	2279.892785724115	18
2	7103	2281.232321639571	17
2	7107	2281.241529656694	18
2	7109	2281.930046898989	19
2	7110	2282.906570326749	18
2	7114	2283.070898951657	19
2	7115	2284.615814052175	18
2	7119	2285.632631653523	19
2	7120	2286.588285923588	18
2	7124	2288.016030909489	19
2	7125	2288.50619146845	18
2	7129	2289.352536560709	19
2	7131	2289.590905277834	20
2	7132	2290.151418856743	19
2	7135	2291.964249901871	18
2	7139	2292.42234987369	19
2	7141	2292.94341523058	20
2	7143	2293.400174102142	21
2	7144	2293.459536588776	20
2	7148	2293.594691967649	21
2	7149	2295.318570295001	20
2	7152	2296.968137084531	19
2	7156	2297.017893920906	20
2	7158	2297.851328224134	21
2	7159	2298.349209299336	20
2	7163	2298.913750760619	21
2	7165	2299.489629604367	22
2	7166	2299.697714790913	21
2	7170	2301.062859392349	22
2	7171	2301.360162463623	21
2	7174	2303.001147120098	20
2	7178	2304.287264187134	21
2	7179	2304.532217595378	20
2	7183	2304.624778259137	21
2	7185	2304.892210936698	22
2	7186	2306.399543004507	21
2	7190	2306.836403598603	22
2	7191	2308.181112322049	21
2	7194	2309.765289091902	20
2	7198	2310.283507317796	21
2	7199	2311.372116800236	20
2	7202	2313.194924871462	19
2	7206	2313.83295334015	20
2	7207	2314.49286669756	19
2	7211	2315.803633650065	20
2	7212	2316.090091235216	19
2	7216	2316.48006688381	20
2	7218	2317.190698312879	21
2	7219	2317.812381198841	20
2	7224	2319.324470069284	19
2	7228	2319.449533603814	20
2	7230	2320.665534933956	21
2	7231	2320.847944735388	20
2	7235	2321.271253215657	21
2	7236	2322.78589626609	20
2	7240	2322.822662341818	21
2	7241	2324.641585188756	20
2	7245	2324.672380253713	21
2	7246	2326.154816949206	20
2	7249	2327.907065988171	19
2	7252	2329.830997971657	18
2	7256	2330.206515502822	19
2	7257	2331.616176210369	18
2	7261	2332.521919046122	19
2	7262	2332.847834406632	18
2	7266	2333.771103272379	19
2	7267	2334.552914392787	18
2	7271	2334.700651214968	19
2	7272	2335.804711106258	18
2	7275	2337.641117703008	17
2	7280	2339.039645767795	16
2	7284	2339.13602998327	17
2	7286	2339.338112423068	18
2	7288	2340.330527039745	19
2	7289	2340.643543854566	18
2	7294	2342.517310741009	17
2	7297	2344.337691185275	16
2	7300	2346.04828149865	15
2	7303	2347.250942821452	14
2	7307	2348.749070170719	15
2	7309	2348.948319645472	16
2	7310	2349.043112772541	15
2	7314	2349.866066958621	16
2	7315	2350.677723531263	15
2	7319	2351.191332466404	16
2	7320	2352.004344483489	15
2	7324	2352.727458998676	16
2	7326	2353.482889788938	17
2	7327	2353.854451109493	16
2	7330	2355.813592045965	15
2	7335	2357.541091664346	14
2	7339	2359.02818916465	15
2	7340	2359.192900825316	14
2	7344	2359.724340615722	15
2	7346	2359.851736962007	16
2	7347	2361.177729467327	15
2	7351	2361.255664218024	16
2	7353	2361.878685815997	17
2	7355	2362.466846209852	18
2	7356	2362.613590333635	17
2	7360	2364.24044501205	18
2	7361	2364.336523645209	17
2	7364	2366.218678968051	16
2	7368	2366.979078924767	17
2	7369	2367.490858045989	16
2	7372	2369.094643501588	15
2	7375	2370.474206650094	14
2	7379	2371.794551407796	15
2	7380	2372.439941851632	14
2	7384	2372.707084699644	15
2	7385	2373.659225654439	14
2	7388	2375.203865946666	13
2	7392	2375.265436995708	14
2	7394	2375.846938515939	15
2	7395	2377.126622232445	14
2	7398	2378.669899912946	13
2	7402	2379.578315348832	14
2	7404	2379.681174421252	15
2	7406	2379.776395632946	16
2	7407	2380.428521332353	15
2	7411	2381.386708673877	16
2	7412	2382.107505902297	15
2	7416	2382.288357961127	16
2	7418	2383.221099377454	17
2	7419	2383.826479753501	16
2	7422	2385.51392595528	15
2	7426	2386.20662500869	16
2	7428	2386.627459708769	17
2	7429	2387.01888944248	16
2	7432	2388.397900431997	15
2	7435	2389.746201826467	14
2	7439	2390.273749076052	15
2	7440	2391.097814851648	14
2	7444	2391.781829517101	15
2	7446	2392.764214558578	16
2	7447	2393.083654708623	15
2	7451	2393.119579418273	16
2	7452	2394.531746622755	15
2	7455	2396.333847836426	14
2	7458	2398.206301019175	13
2	7462	2398.545182734989	14
2	7464	2399.426305173733	15
2	7466	2399.722266907081	16
2	7468	2400.096677617612	17
2	7469	2400.125655060468	16
2	7473	2400.302985526064	17
2	7475	2400.787097967954	18
2	7476	2401.417560752129	17
2	7480	2402.619553316555	18
2	7481	2402.991719918532	17
2	7484	2404.475759917704	16
2	7488	2404.566863902707	17
2	7490	2404.699845535024	18
2	7491	2405.713516255674	17
2	7495	2405.908136810331	18
2	7497	2406.032816867797	19
2	7498	2407.51358433107	18
2	7502	2408.594175112156	19
2	7503	2409.313139370848	18
2	7506	2410.520540050064	17
2	7509	2411.840907398444	16
2	7513	2411.999776252815	17
2	7514	2413.821689560842	16
2	7517	2415.175870518405	15
2	7521	2415.187225652924	16
2	7523	2415.539369042485	17
2	7525	2415.870668687754	18
2	7527	2416.304099158063	19
2	7528	2417.04199839348	18
2	7531	2418.990832619202	17
2	7535	2420.096733194741	18
2	7536	2420.55632512888	17
2	7540	2422.023619647483	18
2	7541	2422.200740027261	17
2	7545	2422.723944800226	18
2	7547	2423.320313051939	19
2	7548	2423.682473441792	18
2	7551	2424.941270693411	17
2	7555	2425.889455039993	18
2	7556	2426.14165833315	17
2	7559	2427.618557092754	16
2	7562	2428.927162870599	15
2	7566	2429.515472187089	16
2	7567	2430.374688568918	15
2	7570	2431.782937403416	14
2	7574	2431.925304757578	15
2	7576	2432.80641781996	16
2	7578	2433.027416547562	17
2	7579	2433.773711911609	16
2	7583	2434.217418393561	17
2	7585	2434.912461968677	18
2	7586	2435.134121699651	17
2	7591	2437.002685107311	16
2	7595	2437.629257235265	17
2	7596	2438.878909171765	16
2	7599	2440.647957688031	15
2	7603	2441.79974177496	16
2	7604	2442.237619895694	15
2	7607	2444.227088933272	14
2	7610	2445.974751422574	13
2	7614	2446.646269523675	14
2	7616	2446.762732930543	15
2	7618	2447.083144645985	16
2	7619	2447.308585869541	15
2	7623	2448.491702252419	16
2	7624	2449.04097577559	15
2	7628	2449.36101051483	16
2	7629	2450.260356234221	15
2	7633	2451.13749355666	16
2	7634	2451.778222044206	15
2	7640	2452.605711904341	16
2	7642	2452.720092926668	17
2	7644	2452.746012821346	18
2	7646	2452.97212809604	19
2	7647	2453.123637092693	18
2	7651	2454.449742536369	19
2	7653	2454.72161460077	20
2	7654	2455.026467795132	19
2	7657	2456.278970780058	18
2	7661	2456.808776031436	19
2	7663	2456.836854092034	20
2	7664	2457.773726558333	19
2	7668	2459.358604565399	20
2	7670	2459.505800064315	21
2	7672	2459.620440284238	22
2	7673	2459.625140662139	21
2	7677	2460.201184330985	22
2	7678	2461.464621783254	21
2	7682	2462.069959511927	22
2	7684	2462.591568117069	23
2	7685	2462.889510231671	22
2	7689	2463.934248370238	23
2	7690	2464.865011583475	22
2	7693	2466.671254442839	21
2	7696	2468.305384208655	20
2	7700	2468.911775567166	21
2	7702	2469.193722450196	22
2	7703	2469.613753664328	21
2	7707	2469.838057982171	22
2	7708	2471.042280662267	21
2	7713	2472.472993289887	20
2	7717	2473.568256208768	21
2	7720	2474.052564321666	20
2	7724	2474.921456245097	21
2	7725	2475.845718999973	20
2	7729	2476.552370302349	21
2	7731	2476.737776191473	22
2	7732	2477.198618254086	21
2	7736	2477.212164823558	22
2	7738	2477.455895351199	23
2	7740	2478.315104402557	24
2	7741	2478.639150772823	23
2	7745	2479.021944051294	24
2	7747	2479.203963056564	25
2	7748	2480.274827677404	24
2	7752	2480.422762895316	25
2	7753	2481.856846027469	24
2	7756	2483.107555042414	23
2	7759	2484.450503946302	22
2	7763	2484.719435978968	23
2	7765	2486.27081006268	24
2	7766	2486.432913207842	23
2	7770	2486.934888749319	24
2	7771	2487.977588504014	23
2	7775	2488.985582532992	24
2	7776	2489.834445618113	23
2	7780	2490.330450432443	24
2	7782	2490.942616767969	25
2	7783	2491.129531468098	24
2	7787	2491.406243730648	25
2	7789	2491.759114239872	26
2	7790	2493.077200252023	25
2	7793	2495.069041188453	24
2	7797	2496.226413397882	25
2	7798	2497.051092362609	24
2	7802	2497.700418061573	25
2	7803	2499.014623514023	24
2	7806	2500.218044275623	23
2	7810	2501.425847634379	24
2	7812	2501.780900739146	25
2	7813	2501.916312825326	24
2	7817	2502.356214644691	25
2	7818	2503.45921058638	24
2	7822	2503.869374683209	25
2	7823	2505.164238236304	24
2	7826	2506.657307806629	23
2	7830	2506.808628217213	24
2	7832	2507.880043641741	25
2	7833	2508.503639659862	24
2	7836	2510.173341975006	23
2	7840	2510.488224559584	24
2	7842	2511.536197111156	25
2	7843	2511.649594525265	24
2	7847	2512.441519045557	25
2	7848	2513.544951738993	24
2	7851	2514.954436188022	23
2	7855	2515.508516322704	24
2	7857	2516.553239971441	25
2	7858	2516.918279727938	24
2	7862	2517.191464668343	25
2	7864	2517.523760179924	26
2	7866	2517.638966750666	27
2	7868	2518.083752592766	28
2	7869	2518.650456779654	27
2	7872	2520.407663986104	26
2	7876	2521.364119914236	27
2	7877	2521.758429619128	26
2	7880	2523.530678199062	25
2	7884	2524.160458623925	26
2	7885	2525.049047727713	25
2	7889	2525.634594674942	26
2	7891	2526.485548442697	27
2	7892	2526.726329671608	26
2	7896	2527.230287774825	27
2	7897	2528.7091280332	26
2	7901	2529.3572108646	27
2	7902	2530.173186173306	26
2	7906	2531.026444624251	27
2	7907	2531.885656934806	26
2	7911	2533.264258187012	27
2	7912	2533.637007175215	26
2	7915	2535.13170400934	25
2	7919	2535.186268391598	26
2	7921	2536.12171356268	27
2	7922	2536.414979900808	26
2	7926	2537.698366406212	27
2	7927	2538.248001940378	26
2	7931	2539.344957344193	27
2	7932	2539.509053043478	26
2	7936	2540.619460879098	27
2	7937	2540.919397249088	26
2	7943	2542.281482687886	27
2	7944	2542.41021343378	26
2	7948	2543.4254678388	27
2	7949	2543.724936034732	26
2	7953	2543.772703160382	27
2	7955	2544.698508068495	28
2	7957	2544.876042400229	29
2	7958	2545.169953142494	28
2	7962	2546.145949414098	29
2	7963	2546.628222597964	28
2	7966	2548.004948948897	27
2	7970	2548.655363459898	28
2	7971	2549.343326001443	27
2	7975	2549.421739206309	28
2	7976	2550.704247024857	27
2	7980	2551.764422371668	28
2	7981	2552.148654920437	27
2	7985	2552.234322924502	28
2	7987	2552.816377393912	29
2	7988	2553.573509333298	28
2	7992	2554.039776600813	29
2	7994	2554.083746001565	30
2	7995	2555.238884305224	29
2	7999	2555.930672694026	30
2	8001	2556.399601424116	31
2	8002	2556.893142791853	30
2	8006	2558.067178683368	31
2	8007	2558.529872587898	30
2	8011	2559.669467356734	31
2	8012	2560.309122969412	30
2	8016	2562.089802907663	31
2	8017	2562.199991007165	30
2	8020	2563.911468585224	29
2	8023	2565.811536884883	28
2	8026	2567.467921332286	27
2	8030	2568.944341479753	28
2	8031	2569.304243788512	27
2	8034	2570.715535004826	26
2	8038	2570.807155943645	27
2	8040	2571.108404680111	28
2	8041	2572.585139025951	27
2	8044	2574.155220359395	26
2	8048	2574.246600379231	27
2	8049	2575.686286422255	26
2	8053	2575.715478214737	27
2	8054	2577.657774909789	26
2	8057	2579.525975115428	25
2	8061	2579.653508486153	26
2	8063	2579.781841857379	27
2	8064	2581.03727529479	26
2	8068	2581.726890988389	27
2	8069	2582.706935620138	26
2	8073	2583.502140859468	27
2	8074	2584.109378786029	26
2	8078	2584.754660184423	27
2	8080	2584.828186678721	28
2	8081	2585.525314706208	27
2	8084	2587.412116036767	26
2	8088	2588.396092624309	27
2	8089	2589.191837033646	26
2	8093	2590.915764305682	27
[...]
5	84841	26411.386767017689	2049.2136206377
5	84890	26426.156168977578	536.50631137061
5	84896	26428.98516825739	2056.032162483
5	84982	26454.350395680998	1561.7506846385
5	85003	26459.517666891996	2536.1591950688
5	85054	26473.930428254265	2056.3236809627
5	85080	26483.076604646105	1565.4982072198
5	85107	26491.413847855325	535.52136952118
5	85119	26494.236980006877	2549.2984370909
5	85133	26497.712662247042	6133.5230284612
5	85243	26529.300479752603	8382.060372196
5	85285	26541.85777362551	3000.7151014886
5	85293	26545.827788082728	2544.9605610923
5	85385	26575.482427250066	1050.5193594336
5	85390	26577.473941011013	3943.2160649075
5	85443	26590.965028052064	2059.6613190958
5	85472	26602.830672610397	3921.6015351959
5	85489	26607.458275004137	2990.5626814663
5	85520	26614.960884817537	6555.5850771246
5	85565	26626.586339066025	2035.0852091547
5	85637	26648.673246209918	1536.8409327653
5	85738	26679.991547768227	518.70078842558
5	85825	26703.50496093262	5322.3793771149
5	85830	26705.49368357122	1556.8839104757
5	85843	26709.567259061375	3463.4540722061
5	85849	26712.284197315239	5769.6534953207
5	85870	26716.886216141322	522.55767896331
5	85902	26728.715338806847	1051.6207869576
5	85905	26730.285321324358	1051.7097986724
5	85932	26738.2412698897	1049.898670912
5	86024	26764.125218967945	1043.6387791143
5	86045	26772.454211218879	527.13309921752
5	86090	26787.46938945096	3447.6264780904
5	86093	26788.681072641015	2058.2464320094
5	86115	26794.926406282783	3939.0413040619
5	86161	26808.5873977004	5326.0167292605
5	86166	26810.089050654919	1553.4111780646
5	86179	26814.226005307437	1055.2958312529
5	86182	26815.763591629491	1056.7961324965
5	86190	26818.852442938873	528.68816780887
5	86227	26829.058429682293	1058.3033887269
5	86244	26833.809858750591	535.70001456891
5	86247	26835.235855147282	535.25311595158
5	86290	26849.468013075591	1061.2709910827
5	86341	26864.414653098248	532.63335584016
5	86366	26872.348340468705	533.98075559323
5	86435	26892.624607447757	3035.1526519274
5	86438	26894.24616883084	1588.6173875568
5	86456	26900.908864179662	1588.0667097529
5	86461	26902.16486574564	3042.5407035804
5	86464	26903.611632457411	3039.6320203869
5	86472	26906.782710896281	3979.9790781063
5	86568	26935.111905860565	2088.7857074719
5	86589	26943.99164327722	3060.2065421131
5	86592	26945.538616216965	2093.3574100472
5	86642	26958.315032394826	1592.1731588614
5	86695	26975.874390356094	4912.2679267304
5	86700	26977.079875520282	3066.829212055
5	86734	26990.153139262499	530.92197422224
5	86768	26999.611975646058	1595.4103401105
5	86790	27005.248995158115	2588.0984236882
5	86849	27023.593646732758	529.56176029658
5	86862	27027.388439941818	1600.4769663393
5	86865	27028.900315839836	531.7445924704
5	86875	27032.254025762567	1604.6983959047
5	86896	27039.259207719045	1064.9475695491
5	86904	27042.833890173624	534.48423348974
5	86991	27066.747563875506	3552.8076521305
5	87055	27087.34806182407	5400.6628020483
5	87075	27094.050808105843	2105.6920720105
5	87117	27106.127994579674	2107.5329381291
5	87128	27109.999926083759	3098.0060540935
5	87148	27113.338035520204	533.73808142272
5	87182	27123.656154911444	1073.4690489056
5	87190	27126.208092419282	4012.3158409522
5	87198	27130.029809901901	11030.746526178
5	87201	27131.859118329026	5405.5964335223
5	87265	27154.729198413567	4936.6449062907
5	87280	27159.321532988215	2099.1253265869
5	87318	27168.346654410512	545.86552100886
5	87323	27169.607432607227	3078.6400752861
5	87383	27188.608410720379	1075.1709054376
5	87396	27193.503855249324	2592.1174504852
5	87431	27205.064180080817	2090.9245915858
5	87459	27214.407854072229	1597.9224465712
5	87483	27220.531346780286	3080.8690912262
5	87517	27229.23875769958	3540.5916177243
5	87552	27239.93677367125	1603.8478829136
5	87592	27253.708401096652	555.95178960915
5	87602	27257.123552733327	4017.3629483968
5	87610	27260.15492800981	558.76483543348
5	87623	27264.661347527468	3564.6668586853
5	87645	27270.988302543797	1605.8855476105
5	87685	27283.745436275043	1083.8637934021
5	87696	27288.154597134926	1088.1747296824
5	87719	27296.093215632289	2110.6352880398
5	87739	27301.78031189911	3089.38475091
5	87767	27310.909344307556	557.24707968508
5	87792	27318.617629880309	2612.6561792672
5	87802	27321.78328802105	7143.1583026499
5	87817	27326.463654656931	1603.6452713401
5	87851	27339.126617166996	1086.9672490038
5	87901	27355.126534315608	4963.1799356738
5	87908	27356.820636839643	1092.5386631323
5	87987	27382.908507731596	2117.8182480086
5	88016	27393.238304653801	2124.0569837596
5	88067	27408.139765914566	1618.0041972364
5	88079	27411.426655402816	4039.5196228682
5	88096	27416.486135998777	2634.49682313
5	88099	27418.453504993058	3118.7756910659
5	88138	27430.152900115437	6805.213178801
5	88148	27433.046356550268	3129.2133826317
5	88201	27449.336043213159	550.14335439987
5	88256	27464.104350313208	1083.9020653298
5	88262	27466.999078365825	3125.150201784
5	88292	27476.713111621551	9084.034321894
5	88326	27486.73395236902	1081.4491370791
5	88331	27488.073417607546	3127.9450175216
5	88369	27501.629829944894	3614.1796282895
5	88382	27506.840847929978	551.1991187274
5	88399	27512.03212392185	554.92272227658
5	88407	27515.234471739867	5474.8446550478
5	88417	27518.398357132488	5466.5570204527
5	88425	27521.358588198051	3139.0169948987
5	88428	27522.983503156752	1084.7655816787
5	88433	27524.355457942226	3141.0346240255
5	88456	27532.708855076917	2647.014510587
5	88461	27534.010120451116	1079.8507738263
5	88476	27538.909536414631	6807.7808214654
5	88479	27540.51099610705	2647.4848512865
5	88559	27564.40280727394	554.81024289472
5	88577	27570.515122477004	557.05819793036
5	88593	27577.59946619928	3153.9698058765
5	88621	27584.132338660807	6395.5319517228
5	88648	27592.377070518621	4553.1019240579
5	88666	27599.243915510589	547.43434806995
5	88678	27602.425702487716	547.64115220827
5	88712	27612.248586286644	1097.9521668138
5	88729	27616.154703064303	5947.9420675069
5	88759	27625.740048753882	554.28882039107
5	88773	27628.973439607063	8771.2262019614
5	88810	27640.148251959534	558.55916971364
5	88843	27651.27088534575	1099.9126090518
5	88905	27669.787005951479	1644.1514526833
5	88917	27673.36943716485	561.3589991472
5	88958	27687.86870965179	1101.1309156972
5	88981	27695.495826843977	1638.276913686
5	89004	27699.663810961172	1095.0894804794
5	89029	27707.512289121226	1633.8288251125
5	89060	27718.297906694599	1625.0747473938
5	89084	27724.219296620824	2653.0624803696
5	89095	27728.867806247101	2150.1026292247
5	89102	27730.511710708999	1629.0257753214
5	89119	27735.164236422666	554.75018253629
5	89122	27736.402729879171	1108.6500386119
5	89144	27742.377587938719	1631.5874447077
5	89173	27751.22315874867	3150.5780574528
5	89215	27763.283096983133	556.4306065602
5	89237	27769.301682884281	2652.2113348552
5	89240	27770.920613629592	10178.007707414
5	89269	27782.889108424296	3642.3103539413
5	89274	27784.479355294478	5495.5855679705
5	89334	27799.628096784873	8056.409816393
5	89364	27809.463890378772	1114.2873053114
5	89397	27820.009760592541	558.56732410225
5	89405	27823.523961147888	4124.3178703178
5	89442	27835.488048235736	2671.2480904746
5	89445	27836.902796015739	559.27894888767
5	89459	27844.070143678448	1646.6572384111
5	89464	27846.008917493596	1113.4181798443
5	89485	27850.580951746404	5060.2422762502
5	89517	27862.058789971322	1112.2412290832
5	89583	27878.189205693677	555.18387886419
5	89586	27879.788157626092	1644.5672265661
5	89599	27884.497050419487	1109.9787812309
5	89609	27887.252427641712	1111.1978395262
5	89646	27897.502379930987	4103.8062985697
5	89649	27899.286467198505	1640.7078059815
5	89704	27913.056685231104	545.91462434146
5	89740	27925.474614187926	3175.4355163559
5	89749	27926.943570988476	2663.3911881465
5	89757	27930.139403272457	552.98954532164
5	89768	27935.239895310476	3181.1303978228
5	89790	27942.967213389128	1110.3592145597
5	89804	27950.047010771967	2174.8770767806
5	89930	27989.88592221927	1646.4690869766
5	89933	27991.549756135085	2173.8116418883
5	89955	27998.09339266982	2703.2040366946
5	89986	28006.322516346388	557.23429011225
5	89998	28010.077485154607	3208.1729600374
5	90025	28017.835480006263	1111.4163802083
5	90050	28025.475568903089	564.26796256681
5	90073	28032.893280247822	3200.1819167792
5	90076	28034.244630948677	561.1630817187
5	90094	28040.204613336213	2178.7142931758
5	90099	28042.071912211031	3199.3139383011
5	90106	28043.95546120055	1641.7605338159
5	90116	28046.629046775065	561.92763107438
5	90153	28056.941815531663	1108.9549244699
5	90161	28059.539838865249	4633.3421939854
5	90171	28062.298051347247	2173.1117597318
5	90200	28069.756753931043	2174.5103530537
5	90218	28075.929973434319	9968.1837234684
5	90289	28096.64543402217	1095.2082114156
5	90307	28102.929719457436	1099.4565446217
5	90319	28106.446900664117	1101.0052678804
5	90365	28121.276925392856	1634.1655517193
5	90495	28159.561612513509	5584.4316103851
5	90540	28171.659931284409	546.61663924551
5	90550	28174.310950109583	3225.0823410113
5	90572	28180.079543561523	3216.2841237333
5	90577	28182.018057800305	2711.298328574
5	90590	28186.724312211795	2711.3550796753
5	90630	28199.651250211745	3717.2313495824
5	90675	28213.107479065506	1644.9842057797
5	90708	28223.639829216561	3724.1842176679
5	90756	28236.474459073727	1114.1031920173
5	90766	28239.450007596274	543.41498809564
5	90774	28243.026788448763	1643.4985328106
5	90796	28249.466944733482	3720.4372006091
5	90799	28251.362019270878	551.4014709715
5	90804	28252.96361519828	5593.5677106156
5	90830	28262.24920361753	1650.3116904856
5	90900	28285.629787950063	1654.6989410645
5	90910	28288.92997995823	5573.5203774853
5	90918	28292.401233156802	3697.5589645447
5	90940	28298.567970878104	4641.0630036666
5	90960	28305.785959469	6497.231664113
5	90983	28313.654450676436	2190.3122413365
5	90988	28315.150008252854	550.43176858925
5	91029	28330.472321520963	1110.1591935938
5	91046	28335.767376699144	548.13841342026
5	91072	28344.817174947479	2185.0351397559
5	91107	28357.325951705531	1663.4286315539
5	91130	28362.473835630373	4667.8819717302
5	91172	28379.393468092971	1112.3748815361
5	91190	28382.730538673543	1669.0295635021
5	91224	28391.799971771084	7849.3888068359
5	91245	28396.667358168245	1661.3712179047
5	91253	28399.389957335808	4669.2028170103
5	91262	28401.015117872723	3218.6150333596
5	91277	28405.685035157234	5106.5119643532
5	91284	28407.681040938601	3709.2731131502
5	91287	28409.608360944346	1663.3345605368
5	91290	28411.378487859324	545.71115871464
5	91300	28414.520951343358	548.36144423273
5	91389	28442.595320022697	552.45346030549
5	91425	28452.300420729475	6542.3839769463
5	91428	28453.952181503395	551.17369375152
5	91433	28455.233044807086	7445.8684808795
5	91453	28461.959399024616	5119.3183156821
5	91478	28470.487106822277	558.88412938325
5	91497	28474.908869972112	558.09363988685
5	91557	28495.278024541617	1667.4765610966
5	91686	28531.377063717722	6106.2460940345
5	91689	28533.130053037993	1114.5601691562
5	91692	28534.631564743474	2730.8289446023
5	91711	28539.479582788266	3252.888187522
5	91744	28550.219021973417	1112.6139602376
5	91761	28554.929352311261	551.32637444761
5	91866	28584.285460259982	2733.8050131935
5	91869	28585.819280513965	1674.5686509746
5	91879	28589.546793452494	559.28031698022
5	91891	28592.71311006102	2208.1867368953
5	91894	28594.531259435259	556.00617536469
5	92000	28627.346436253592	8738.6486138442
5	92008	28630.070554039284	1120.6220298134
5	92038	28639.115809902207	561.86789933318
5	92048	28642.869609052532	3763.4027330029
5	92061	28647.214738569439	9107.4583620287
5	92074	28651.703078384541	2730.8306810821
5	92091	28657.132241346531	8312.719120982
5	92113	28664.858045148321	567.07261143651
5	92152	28675.592419721963	7922.417016056
5	92179	28683.646931899557	2740.8009455061
5	92226	28695.570769104393	2204.3797584356
5	92242	28701.736996010722	1111.5030302135
5	92273	28712.249133395435	571.1806704103
5	92320	28724.763834998229	1120.3027833026
5	92326	28727.485313361542	2217.4673603385
5	92331	28728.891343759963	4767.680936247
5	92336	28730.175288277151	7529.5742614544
5	92371	28741.710630091499	1118.1944547372
5	92427	28758.478475912321	1119.453145743
5	92432	28760.152736285735	569.03712499298
5	92439	28762.132956650328	2764.4444427475
5	92457	28768.317063217084	4291.9889337191
5	92487	28778.508125452359	2762.9271363314
5	92490	28780.113556507264	4773.925749759
5	92564	28801.165250374785	568.60359391019
5	92580	28807.970897489822	1115.6963820662
5	92606	28814.049449697172	569.5528963448
5	92611	28815.643981085008	1117.9095708819
5	92671	28834.870581528394	1121.101371196
5	92707	28845.244598771296	9171.869241326
5	92759	28862.019013021364	565.70041381253
5	92782	28866.78658529058	1117.2236855884
5	92797	28871.969194891153	5664.6442905012
5	92807	28875.371677892877	564.35239838848
5	92818	28879.79203280065	1674.9024137729
5	92861	28891.218730635046	2224.4570076965
5	92872	28896.319618444926	1109.7750281657
5	92926	28912.808694599978	2747.8524673484
5	92934	28916.187044428325	554.99264024399
5	92970	28924.134779295175	3283.9943308831
5	93048	28945.541638759187	3799.1787933925
5	93070	28951.676269675082	1120.0412611327
5	93075	28952.965336924641	2238.8386428419
5	93090	28957.984494815803	560.04243528438
5	93108	28963.89164241798	1114.7882566414
5	93114	28967.446870348637	1116.8936744666
5	93124	28970.568903920461	1673.0035544721
5	93129	28971.785593600791	1105.8138503431
5	93132	28973.107858962972	558.72368239654
5	93147	28978.096457109634	6614.0275722643
5	93155	28980.608356544781	3273.7955799297
5	93165	28983.610217035409	3783.397856724
5	93168	28985.437117664736	1670.0732344172
5	93178	28988.64289261106	1113.5871549294
5	93181	28990.4137806645	3788.5655710838
5	93191	28994.031641277704	3275.6486385635
5	93197	28996.826622737046	2751.7926435488
5	93235	29008.479314554329	558.95779163838
5	93240	29010.221917956355	1118.4331550489
5	93285	29024.746799181436	4290.2099224267
5	93326	29036.050059237926	7094.3424994013
5	93339	29039.971009263432	558.74618637388
5	93342	29041.294266930072	558.69367661429
5	93355	29045.825073003432	3788.5642527235
5	93383	29055.751230642794	1677.9597816692
5	93391	29058.751445275208	6191.2225685356
5	93431	29074.319407499431	7120.765493881
5	93439	29077.074072902312	563.90991758841
5	93478	29088.725211914105	1680.1342701314
5	93532	29101.932190750574	565.2914483584
5	93537	29103.86566591378	2240.3229157113
5	93547	29106.768300597217	567.33662740515
5	93562	29114.609103720296	2777.7720447022
5	93644	29140.053296976012	6703.8281328586
5	93665	29144.884910546464	1135.2772475011
5	93679	29147.897893455473	1134.6317502895
5	93700	29155.379262970237	2784.1527040832
5	93724	29161.278676836228	2781.2875916963
5	93766	29173.983862488566	14070.700138403
5	93774	29177.421489403991	3825.3426964726
5	93792	29183.210484062357	1128.9118509761
5	93860	29202.199045297913	2771.8904064475
5	93863	29203.8611283461	9678.8551232284
5	93918	29221.004175810365	562.28817691155
5	93928	29223.831197874097	8046.6548313734
5	93965	29235.204536410457	563.67909535457
5	94039	29258.35540669471	5773.4660857509
5	94062	29265.987101656981	2240.1702322046
5	94076	29269.358217188009	574.50601954527
5	94079	29270.710447944553	4845.4199784357
5	94087	29273.779153100253	2775.3548382846
5	94112	29281.673986611181	568.93253471842
5	94115	29283.524196030424	570.40403452758
5	94121	29286.566022919716	3315.0466019874
5	94142	29294.050183307232	3855.6207535699
5	94158	29299.990453008974	2244.0169418168
5	94165	29301.489446945714	4360.1462029749
5	94185	29307.191064078028	4359.4289102683
5	94219	29316.614880457561	1690.5518190329
5	94251	29327.257235601212	1146.9924537433
5	94317	29346.367555048356	1141.2413156904
5	94320	29347.591519205125	2797.5245834269
5	94368	29361.01921979193	2259.4478931606
5	94402	29370.386522599724	2258.4388848002
5	94410	29373.777406307538	573.26079381652
5	94413	29375.772698473972	573.41704758984
5	94444	29384.624061674293	574.99142522257
5	94452	29388.213694090623	3863.5735085882
5	94515	29406.441033263357	1157.6947988495
5	94532	29411.307609980406	579.49189875636
5	94537	29412.827222636381	2277.8033424041
5	94563	29419.103548267895	1157.6320070721
5	94614	29437.077423613	2815.5383247058
5	94656	29447.058959563117	583.6673667661
5	94672	29452.769367229607	1708.7495232668
5	94684	29456.39190466911	2819.384745799
5	94694	29459.350133218471	3343.8731548072
5	94701	29461.074916026596	1707.4449391683
5	94716	29465.210627768044	2263.9228363525
5	94768	29480.213787173709	8556.6651672371
5	94821	29495.039757416627	584.36533373134
5	94836	29499.464655328212	5356.4362568302
5	94902	29520.830754839113	1140.6618437533
5	94930	29530.713360459028	1148.7889797409
5	94955	29538.170295963852	4885.302434418
5	94963	29541.595138980305	2284.7015736192
5	95021	29556.962520263015	6787.0686092085
5	95062	29567.699962399198	3343.1378501427
5	95069	29569.49533803933	3342.131716947
5	95145	29592.588098321711	1138.2140846277
5	95305	29638.333185420415	558.21947868896
5	95319	29641.614243814021	5357.5249722925
5	95326	29642.875859189637	2805.8109069604
5	95329	29644.224644380108	1693.9381750106
5	95335	29647.764444688008	1695.9606410869
5	95397	29666.405699449824	2814.0258492693
5	95439	29678.973156297254	1138.180466309
5	95457	29685.263433521476	2256.4082244766
5	95465	29687.919554624755	3337.9640971473
5	95475	29690.706338364121	1139.659336655
5	95493	29697.000067938168	1139.8458832946
5	95520	29704.94524358963	564.05753164655
5	95564	29717.830582638135	1706.1132226942
5	95567	29719.768872439353	11679.637408153
5	95680	29749.751657694257	3874.5383433446
5	95755	29774.817195140248	1706.5980571718
5	95758	29776.037257822281	2805.3264257446
5	95776	29779.01409441275	2248.5243661486
5	95825	29796.36513916371	567.94151358713
5	95871	29813.297960536793	1702.6924675852
5	95885	29816.322892030753	4408.3493881283
5	95915	29825.832448756561	572.68445449462
5	95925	29829.337693303504	1145.0892143422
5	95934	29833.83724524738	4416.2651686629
5	95945	29838.282941847348	1145.1667411891
5	95957	29841.594893189014	572.43614696079
5	96012	29861.590369128488	5425.2804740449
5	96039	29866.093523131736	5902.5038954613
5	96051	29868.885974560544	1131.8999001548
5	96068	29874.031113207206	2251.636021954
5	96123	29892.803744079598	2816.205579938
5	96145	29898.831961037271	565.24781601184
5	96150	29900.506512028218	1141.7894032188
5	96153	29902.388556903654	1140.5519467842
5	96166	29907.603325839208	2261.7438364912
5	96200	29918.437393906766	2262.8755193164
5	96218	29925.030511039736	572.36302321042
5	96226	29927.855560146885	1714.4863971188
5	96241	29933.101335148381	4434.8613208304
5	96244	29934.899034978876	2830.0746999546
5	96329	29962.328248702601	1729.5733987224
5	96360	29973.266015602142	1155.2565586586
5	96415	29987.707108711877	577.21849195902
5	96458	29999.354790485704	1741.666513364
6	3485	1125.160583790971	1093.681471979
6	3524	1139.005411909541	1090.7220786964
6	3549	1147.154540584257	869.17450918323
6	3661	1184.54997510316	779.13954615
6	3827	1239.214673111234	622.81976913789
6	3849	1248.965566555242	567.87477644038
6	3877	1258.726205945405	383.89677456366
6	3880	1260.129562444257	328.8183920074
6	3921	1270.586395211534	202.61228713807
6	4019	1301.889725978876	1169.8637015672
6	4094	1326.106677106781	843.4572113673
6	4287	1388.778926483183	814.83336455093
6	4317	1397.663075249098	756.5225798956
6	4366	1416.193447553754	627.40480304159
6	4381	1421.536354185283	562.86216123969
6	4421	1432.854829869435	424.48116573706
6	4531	1470.069296132791	1418.1754916398
6	4886	1583.69271659015	1225.1461465467
6	5044	1635.181129660663	394.13421549359
6	5049	1636.579886290637	990.14927553246
6	5063	1643.213124020232	921.47182688954
6	5176	1677.375756909534	405.02667486795
6	5199	1686.448223315015	1645.8961670948
6	5207	1689.30414720422	1578.4380347737
6	5265	1708.233908043824	203.04805298126
6	5388	1749.051233154001	138.39333933964
6	5433	1764.020061351384	1049.8048448089
6	5564	1805.747346611717	1691.7616650724
6	5567	1807.514765265607	295.21224898184
6	6015	1948.345039621764	364.99986870254

