version 2
run Third_exit_8-9-20191114-11:43:02-9039
attr configname Third_exit_8
attr datetime 20191114-11:43:02
attr experiment Third_exit_8
attr inifile omnetpp.ini
attr iterationvars ""
attr iterationvarsf ""
attr measurement ""
attr network ResponseTimeNetwork
attr processid 9039
attr repetition 9
attr replication #9
attr resultdir results
attr runnumber 9
attr seedset 9
param **.Source.interArrivalTime exponential(6s)
param **.jobPriority bernoulli(0.8)
param **.PS.serviceTimeU1 "uniform(1.2s, 2.0s)"
param **.PS.serviceTimeU2 "uniform(2.4s, 2.8s)"
param **.SS1.serviceTime exponential(1.4s)
param **.SS2.serviceTime exponential(2s)
param **.PS.exitProbability bernoulli(0.8)

vector 0 ResponseTimeNetwork.QueueU1 queueLength:vector ETV
attr interpolationmode sample-hold
attr title "queue length, vector"
vector 1 ResponseTimeNetwork.SS1 queueLength:vector ETV
attr interpolationmode sample-hold
attr title "queue length, vector"
vector 2 ResponseTimeNetwork.QueueU2 queueLength:vector ETV
attr interpolationmode sample-hold
attr title "queue length, vector"
vector 3 ResponseTimeNetwork.sink lifeTimeU1:vector ETV
attr interpolationmode none
attr title "lifetime of arrived jobs U1, vector"
attr unit s
vector 4 ResponseTimeNetwork.sink totalServiceTimeU1:vector ETV
attr interpolationmode none
attr title "the total time spent  by arrived jobs U1, vector"
attr unit s
vector 5 ResponseTimeNetwork.sink lifeTime:vector ETV
attr interpolationmode none
attr title "lifetime of arrived jobs, vector"
attr unit s
vector 6 ResponseTimeNetwork.sink totalServiceTime:vector ETV
attr interpolationmode none
attr title "the total time spent  by arrived jobs, vector"
attr unit s
vector 7 ResponseTimeNetwork.SS2 queueLength:vector ETV
attr interpolationmode sample-hold
attr title "queue length, vector"
vector 8 ResponseTimeNetwork.sink lifeTimeU2:vector ETV
attr interpolationmode none
attr title "lifetime of arrived jobs U2, vector"
attr unit s
vector 9 ResponseTimeNetwork.sink totalServiceTimeU2:vector ETV
attr interpolationmode none
attr title "the total time spent  by arrived jobs U2, vector"
attr unit s
0	31905	10000.700775719302	17
0	31910	10001.917913238945	16
0	31914	10002.869108627956	17
0	31916	10003.114651908604	18
0	31917	10003.736251953671	17
0	31921	10004.944606072206	18
0	31922	10005.615479650589	17
0	31925	10007.593874037879	16
0	31928	10008.972985635752	15
0	31933	10010.928922981637	14
0	31937	10011.073594920486	15
0	31939	10011.312971414063	16
0	31941	10012.10210668949	17
0	31942	10012.186237310114	16
0	31946	10012.221528411168	17
0	31947	10014.127015067319	16
0	31951	10014.857329769928	17
0	31953	10015.065000825103	18
0	31955	10015.243166252734	19
0	31956	10015.458836844804	18
0	31960	10016.184902325754	19
0	31962	10016.360196606235	20
0	31963	10017.352816630768	19
0	31966	10019.343508863503	18
0	31970	10020.337833957927	19
0	31971	10021.239975788684	18
0	31975	10021.318935065036	19
0	31976	10022.477165830561	18
0	31979	10024.01395431427	17
0	31983	10024.876136271817	18
0	31984	10025.689098877885	17
0	31988	10025.849698521215	18
0	31989	10026.98344649417	17
0	31992	10028.885135614925	16
0	31996	10029.044369352161	17
0	31998	10030.142695234936	18
0	32000	10030.294398759369	19
0	32001	10030.517446930014	18
0	32004	10032.330071492732	17
0	32008	10034.055855473956	18
0	32009	10034.20508163409	17
0	32012	10035.469788434596	16
0	32015	10036.792162005657	15
0	32019	10037.845493735984	16
0	32020	10038.396880029009	15
0	32023	10039.655311837101	14
0	32027	10040.62101112783	15
0	32029	10040.949570156318	16
0	32030	10040.951581677662	15
0	32034	10042.192982584048	16
0	32035	10042.225795036049	15
0	32039	10043.540765245809	16
0	32041	10043.686589077742	17
0	32043	10043.96305199994	18
0	32044	10044.071229032294	17
0	32048	10044.342050092717	18
0	32049	10045.328522925877	17
0	32052	10047.099405912922	16
0	32056	10047.289593218143	17
0	32058	10048.384185547761	18
0	32059	10048.6072353073	17
0	32063	10048.653772721885	18
0	32065	10049.125648072374	19
0	32066	10049.9032165133	18
0	32069	10051.158234063031	17
0	32073	10051.188591840309	18
0	32075	10052.001682611284	19
0	32077	10052.934224046428	20
0	32078	10052.9594507963	19
0	32082	10053.156362435801	20
0	32083	10054.354336422922	19
0	32087	10055.930975492419	20
0	32088	10056.063648198971	19
0	32091	10057.592847364263	18
0	32094	10058.968322029018	17
0	32098	10059.779337164002	18
0	32100	10060.278168003798	19
0	32102	10060.514773201876	20
0	32103	10060.702071080224	19
0	32107	10061.152215988834	20
0	32108	10062.412211157435	19
0	32112	10063.618343349795	20
0	32113	10063.86696584081	19
0	32117	10065.312608761823	20
0	32118	10065.373660569319	19
0	32122	10065.60863212404	20
0	32123	10067.343163759129	19
0	32126	10068.917161830941	18
0	32130	10069.997443725786	19
0	32132	10070.190466651757	20
0	32133	10070.543544623682	19
0	32137	10070.718177927706	20
0	32139	10071.695776514005	21
0	32140	10071.872706693837	20
0	32144	10072.962179364578	21
0	32145	10073.470156833956	20
0	32148	10074.902516361194	19
0	32152	10075.314848148909	20
0	32154	10075.986481631375	21
0	32155	10076.345612715425	20
0	32159	10076.548569481797	21
0	32160	10078.181865675429	20
0	32163	10080.012053271251	19
0	32167	10080.263893926078	20
0	32169	10081.197255320852	21
0	32170	10081.640638508143	20
0	32174	10083.386677302545	21
0	32175	10083.589904661903	20
0	32178	10085.015261113698	19
0	32182	10085.281121045807	20
0	32184	10085.754530282005	21
0	32186	10085.796582862817	22
0	32187	10086.629547125342	21
0	32191	10086.635717153063	22
0	32193	10088.284446468645	23
0	32194	10088.469359467233	22
0	32198	10089.546011287793	23
0	32199	10090.288458135592	22
0	32203	10090.745665812942	23
0	32204	10091.736047640311	22
0	32208	10092.437596601999	23
0	32209	10093.20329122735	22
0	32212	10094.949018240588	21
0	32216	10096.260979813473	22
0	32217	10096.756142615209	21
0	32221	10097.043756616345	22
0	32225	10097.641184655228	23
0	32226	10098.275282540413	22
0	32230	10098.27787874543	23
0	32231	10099.918042928221	22
0	32235	10100.143658451673	23
0	32237	10100.212258164926	24
0	32238	10101.521269204708	23
0	32242	10102.116104823893	24
0	32244	10102.624799931759	25
0	32245	10102.780854579861	24
0	32249	10103.184658279824	25
0	32250	10104.76612876864	24
0	32254	10105.599977430311	25
0	32256	10105.601096908572	26
0	32257	10106.563265741857	25
0	32260	10108.130800493302	24
0	32263	10109.909838971922	23
0	32267	10110.720053764357	24
0	32268	10111.722832173349	23
0	32272	10111.939274342154	24
0	32273	10113.55976738041	23
0	32276	10115.066767467612	22
0	32280	10115.636181159309	23
0	32281	10116.552134918289	22
0	32284	10118.303322582187	21
0	32288	10118.504587993493	22
0	32290	10118.939965337386	23
0	32292	10119.430670083695	24
0	32293	10120.246727880889	23
0	32296	10121.663740451874	22
0	32300	10121.768142573308	23
0	32301	10123.620043828951	22
0	32305	10124.160802853275	23
0	32306	10125.090380139889	22
0	32310	10125.150425251328	23
0	32311	10126.793314590173	22
0	32315	10127.428794147759	23
0	32316	10128.696062813753	22
0	32320	10129.800179783206	23
0	32321	10130.562790597656	22
0	32324	10132.235158531607	21
0	32328	10132.531029346138	22
0	32329	10133.987237904646	21
0	32333	10134.085431182158	22
0	32335	10134.990082475076	23
0	32338	10135.207638699428	22
0	32342	10135.398606429492	23
0	32344	10135.471355464393	24
0	32345	10136.635744547897	23
0	32349	10137.025810425612	24
0	32350	10138.575397038699	23
0	32354	10138.607886148474	24
0	32355	10140.525665358693	23
0	32359	10140.559373679094	24
0	32360	10142.491395533324	23
0	32364	10143.925108543322	24
0	32365	10144.033634255879	23
0	32369	10144.574338905683	24
0	32370	10145.886892949097	23
0	32373	10147.137892574497	22
0	32377	10147.896434524254	23
0	32379	10148.857855449452	24
0	32380	10148.961866813764	23
0	32384	10149.058041216791	24
0	32385	10150.300665630825	23
0	32389	10150.872482783992	24
0	32390	10151.756602744252	23
0	32393	10153.053544916265	22
0	32397	10153.154359403384	23
0	32398	10154.333874627628	22
0	32402	10154.929102262106	23
0	32404	10154.956823988313	24
0	32405	10155.933587886632	23
0	32412	10157.759315311216	22
0	32416	10159.089935869418	23
0	32417	10159.543640454352	22
0	32420	10161.102437116258	21
0	32423	10162.313275233708	20
0	32427	10162.54258028327	21
0	32429	10163.565000656897	22
0	32431	10163.783999992852	23
0	32432	10163.802486795239	22
0	32436	10164.55690724413	23
0	32438	10165.352314601557	24
0	32439	10165.461421874776	23
0	32442	10167.113118487276	22
0	32445	10168.707825894706	21
0	32449	10168.786586029707	22
0	32450	10170.697340454027	21
0	32454	10170.927740735392	22
0	32455	10172.683725514688	21
0	32459	10173.774857334461	22
0	32460	10174.195933668927	21
0	32464	10174.815238216955	22
0	32466	10175.12045269166	23
0	32467	10175.687307457679	22
0	32471	10176.155178300391	23
0	32472	10177.019184581243	22
0	32476	10177.628545119584	23
0	32477	10178.596673323453	22
0	32480	10180.480479246058	21
0	32483	10181.727174297028	20
0	32487	10183.082944570761	21
0	32488	10183.545598745213	20
0	32491	10185.104490794481	19
0	32495	10185.193586819132	20
0	32496	10186.778651708418	19
0	32500	10188.403503865638	20
0	32501	10188.459037931876	19
0	32505	10188.498880796702	20
0	32507	10189.29809034913	21
0	32509	10189.892125274903	22
0	32510	10190.187755712548	21
0	32514	10190.465470559782	22
0	32515	10191.392156770134	21
0	32520	10193.067788903469	20
0	32523	10195.026118958423	19
0	32527	10196.408040413125	20
0	32528	10196.615792178417	19
0	32532	10197.823622073085	20
0	32533	10198.189771316627	19
0	32536	10199.465679300444	18
0	32540	10200.784861531486	19
0	32542	10201.137267077233	20
0	32543	10201.348461392948	19
0	32547	10201.880847800728	20
0	32549	10201.987023871012	21
0	32550	10203.300229309367	20
0	32553	10204.652507708276	19
0	32557	10205.257424360846	20
0	32559	10205.958502565736	21
0	32560	10206.475679991262	20
0	32563	10207.876444158385	19
0	32566	10209.643471074159	18
0	32569	10211.047720506097	17
0	32572	10212.635306885707	16
0	32576	10212.831214791304	17
0	32577	10214.203810166809	16
0	32581	10215.278468326145	17
0	32582	10215.924764284733	16
0	32586	10215.971819438842	17
0	32588	10216.488575187401	18
0	32589	10217.274124767128	17
0	32593	10218.795221695408	18
0	32594	10218.882583832983	17
0	32598	10220.688713981026	18
0	32599	10220.853084272947	17
0	32603	10222.191653731679	18
0	32604	10222.792234707679	17
0	32608	10223.130063783164	18
0	32610	10223.472897832818	19
0	32611	10224.732972044739	18
0	32615	10225.335044017269	19
0	32617	10225.929580333442	20
0	32619	10226.105578051467	21
0	32620	10226.365226205866	20
0	32623	10228.335341919082	19
0	32627	10229.29148747723	20
0	32628	10229.727721434514	19
0	32633	10231.345738043505	18
0	32637	10231.733497745039	19
0	32638	10232.637957018296	18
0	32642	10233.521332841595	19
0	32643	10233.935159424933	18
0	32646	10235.932869736718	17
0	32650	10236.504643798329	18
0	32651	10237.555194323936	17
0	32654	10239.367035058939	16
0	32658	10239.864705137904	17
0	32659	10240.904947074742	16
0	32663	10241.368786751859	17
0	32665	10241.551542370829	18
0	32666	10242.455424485595	17
0	32670	10243.285179489931	18
0	32672	10243.659755966968	19
0	32673	10243.772218039312	18
0	32677	10245.01126599069	19
0	32678	10245.755766069197	18
0	32681	10247.477734084667	17
0	32685	10248.987460227102	18
0	32686	10249.351981190645	17
0	32690	10249.858691470373	18
0	32691	10251.047005816788	17
0	32695	10251.128782199853	18
0	32697	10251.620615246102	19
0	32699	10252.359175688087	20
0	32701	10252.414474438185	21
0	32702	10252.424149524659	20
0	32706	10253.221539435195	21
0	32707	10253.694297346339	20
0	32711	10253.700037727432	21
0	32713	10254.702900152987	22
0	32714	10255.532550756127	21
0	32718	10256.164111172166	22
0	32720	10256.270502834599	23
0	32721	10256.762854815141	22
0	32725	10257.385280297191	23
0	32728	10258.694830818155	22
0	32732	10259.220991770216	23
0	32734	10259.709841416963	24
0	32737	10260.233450534807	23
0	32741	10260.454416645603	24
0	32742	10261.742388134317	23
0	32746	10263.451989169125	24
0	32747	10263.516203186715	23
0	32751	10264.235101106388	24
0	32752	10265.278257584253	23
0	32755	10266.606136086078	22
0	32759	10266.679332589451	23
0	32761	10267.539092441394	24
0	32762	10268.071325556801	23
0	32766	10268.184066781661	24
0	32769	10269.540717005969	23
0	32772	10271.448754974321	22
0	32775	10273.186885890604	21
0	32778	10274.726181895898	20
0	32782	10276.21537289634	21
0	32783	10276.612764523045	20
0	32787	10277.328067848162	21
0	32789	10277.458907774161	22
0	32790	10278.262093439006	21
0	32793	10280.099780046993	20
0	32797	10281.23091714612	21
0	32798	10281.875686666236	20
0	32802	10283.055836452378	21
0	32804	10283.088781872152	22
0	32806	10283.116282296085	23
0	32807	10283.2269560088	22
0	32812	10284.732745135256	21
0	32816	10285.158093059975	22
0	32817	10285.954025189073	21
0	32821	10287.002264790575	22
0	32822	10287.773033503124	21
0	32826	10287.808172083848	22
0	32829	10289.252876789176	21
0	32832	10290.464506861621	20
0	32836	10290.738725308318	21
0	32838	10291.011112753124	22
0	32840	10292.023828416881	23
0	32841	10292.207645393589	22
0	32845	10293.510206068	23
0	32847	10293.538123163512	24
0	32848	10294.063705009648	23
0	32852	10294.082752478585	24
0	32854	10294.328417793886	25
0	32855	10295.935908672453	24
0	32858	10297.678867027217	23
0	32861	10299.540440896766	22
0	32864	10301.24462053837	21
0	32868	10301.381043269045	22
0	32870	10302.156773885799	23
0	32871	10302.89835155742	22
0	32875	10303.10199983852	23
0	32876	10304.344993111917	22
0	32880	10305.706161393995	23
0	32881	10306.100811006182	22
0	32885	10307.501640235873	23
0	32886	10308.071069361136	22
0	32889	10309.326843837143	21
0	32893	10309.799914928902	22
0	32895	10309.801835893547	23
0	32896	10310.870084143297	22
0	32900	10311.244723623482	23
0	32902	10311.789879695047	24
0	32903	10312.471514859663	23
0	32907	10313.423426897093	24
0	32908	10313.777392431589	23
0	32912	10314.668375879559	24
0	32915	10315.640799160542	23
0	32919	10315.826492133056	24
0	32920	10316.930458807627	23
0	32925	10318.567127769122	22
0	32929	10319.002239536484	23
0	32931	10319.971229235962	24
0	32932	10320.200261695551	23
0	32936	10320.720279593717	24
0	32937	10321.429606762583	23
0	32940	10323.067217637653	22
0	32944	10323.13241841303	23
0	32945	10324.566230113673	22
0	32949	10324.887824371087	23
0	32950	10325.909722243118	22
0	32954	10326.397307659659	23
0	32955	10327.657348404321	22
0	32959	10328.136516691502	23
0	32960	10329.509437611568	22
0	32963	10330.815829249527	21
0	32966	10332.109884252269	20
0	32969	10333.332555440124	19
0	32973	10334.272705671536	20
0	32974	10334.984515984971	19
0	32978	10336.062294826455	20
0	32979	10336.877020312715	19
0	32983	10338.009674301572	20
0	32984	10338.264945188779	19
0	32988	10338.845948860757	20
0	32989	10340.220209913943	19
0	32993	10341.535800946599	20
0	32994	10341.57964908896	19
0	32998	10342.122578999421	20
0	33000	10342.421932342994	21
0	33002	10343.025325632162	22
0	33003	10343.559132256787	21
0	33007	10343.667019337199	22
0	33009	10344.3662286444	23
0	33010	10345.233016746733	22
0	33013	10346.599725979808	21
0	33016	10348.177412547971	20
0	33021	10349.589468812066	19
0	33025	10349.859781194464	20
0	33027	10351.329266342943	21
0	33028	10351.48630400082	20
0	33032	10352.199746793127	21
0	33034	10353.039761616653	22
0	33035	10353.274448414016	21
0	33038	10354.562896013315	20
0	33041	10355.963668972495	19
0	33045	10356.004548035199	20
0	33046	10357.351124280374	19
0	33050	10358.71765156457	20
0	33052	10358.92779042959	21
0	33053	10359.211153253223	20
0	33057	10359.59858116953	21
0	33058	10360.740000083911	20
0	33062	10360.869427551698	21
0	33064	10362.164560035368	22
0	33065	10362.727104096542	21
0	33068	10364.651512801516	20
0	33072	10365.301284460197	21
0	33073	10366.008934576864	20
0	33076	10367.52851837674	19
0	33079	10369.496071932147	18
0	33082	10371.174462903718	17
0	33086	10372.273033280983	18
0	33087	10373.026457500326	17
0	33091	10373.598398706907	18
0	33093	10374.498064581035	19
0	33094	10374.889827016609	18
0	33098	10374.913827195273	19
0	33100	10375.383030278418	20
0	33102	10375.742442437296	21
0	33103	10376.82318617707	20
0	33107	10377.523532373622	21
0	33109	10378.685912428155	22
0	33110	10378.767400775346	21
0	33114	10379.330956398013	22
0	33115	10380.308357039335	21
0	33119	10380.807072016866	22
0	33120	10381.715296671408	21
0	33123	10383.622355644273	20
0	33126	10385.294501473995	19
0	33129	10386.720953913646	18
0	33133	10387.941540545588	19
0	33135	10388.176612076572	20
0	33136	10388.31486498067	19
0	33139	10389.871594922858	18
0	33143	10390.442822491143	19
0	33145	10390.849761453578	20
0	33146	10391.124781301113	19
0	33150	10391.955478687003	20
0	33151	10393.106014508436	19
0	33155	10393.272153223956	20
0	33157	10393.920687175597	21
0	33158	10394.407852238471	20
0	33162	10394.447102389338	21
0	33163	10395.984645116384	20
0	33167	10397.063475369598	21
0	33168	10397.763454536962	20
0	33172	10398.315653928494	21
0	33174	10399.122259466598	22
0	33175	10399.58539715452	21
0	33179	10399.784750163407	22
0	33180	10401.042679776492	21
0	33184	10401.587883663221	22
0	33185	10402.246227443831	21
0	33189	10403.909012058145	22
0	33190	10404.228918020667	21
0	33194	10404.601557844767	22
0	33195	10406.092298042455	21
0	33199	10406.736837335836	22
0	33200	10407.894738470071	21
0	33204	10409.488188075186	22
0	33205	10409.689568602347	21
0	33208	10411.199794257485	20
0	33212	10411.538857759838	21
0	33213	10412.514919897594	20
0	33216	10414.419737544895	19
0	33220	10414.493300716541	20
0	33221	10415.627434841596	19
0	33225	10415.902327956595	20
0	33227	10417.026209876572	21
0	33228	10417.251203464956	20
0	33232	10417.585483567214	21
0	33233	10418.639127878898	20
0	33236	10419.962236402796	19
0	33240	10421.257539152223	20
0	33241	10421.560671896541	19
0	33245	10422.632803353613	20
0	33246	10423.076967096196	19
0	33250	10423.997425822472	20
0	33251	10424.893874028192	19
0	33255	10425.785806225238	20
0	33257	10426.275357613989	21
0	33258	10426.440864999645	20
0	33262	10427.570332555997	21
0	33263	10428.241699086741	20
0	33266	10429.782073373028	19
0	33270	10430.147715870227	20
0	33271	10431.155090150476	19
0	33274	10432.6642291511	18
0	33278	10433.685526146095	19
0	33280	10433.881206718505	20
0	33282	10434.296084022575	21
0	33283	10434.388866949692	20
0	33286	10435.808023316837	19
0	33289	10437.751859646714	18
0	33295	10439.113004836107	19
0	33296	10439.419985529086	18
0	33300	10439.494338300803	19
0	33302	10440.542735928107	20
0	33303	10441.076559216952	19
0	33307	10441.322245112658	20
0	33309	10442.135978368619	21
0	33310	10442.740010293623	20
0	33314	10443.052783433277	21
0	33316	10443.847875250648	22
0	33317	10444.588873737542	21
0	33321	10444.608620860082	22
0	33323	10445.657524933645	23
0	33325	10446.222452819342	24
0	33326	10446.4017925954	23
0	33330	10447.554989390568	24
0	33331	10448.202305883779	23
0	33335	10449.573822657786	24
0	33336	10449.631957105598	23
0	33340	10449.865225328878	24
0	33342	10449.957716013751	25
0	33343	10451.551176834902	24
0	33347	10452.917165186605	25
0	33348	10453.049081299504	24
0	33352	10453.359786133768	25
0	33353	10454.352057284167	24
0	33357	10455.942187417336	25
0	33358	10456.00133075477	24
0	33362	10456.43398956744	25
0	33363	10457.920412479764	24
0	33367	10459.786830543171	25
0	33368	10459.824309893934	24
0	33372	10459.827379641543	25
0	33374	10460.317499455494	26
0	33376	10460.459053937645	27
0	33377	10461.788607283359	26
0	33381	10462.306160773289	27
0	33382	10463.730707608772	26
0	33386	10464.412544465978	27
0	33387	10465.267699462598	26
0	33390	10466.728036744943	25
0	33393	10467.977120213634	24
0	33397	10468.700968480656	25
0	33399	10469.158737384758	26
0	33400	10469.605832294053	25
0	33404	10470.881653309569	26
0	33405	10471.12782377792	25
0	33409	10472.885882087378	26
0	33410	10473.02626638343	25
0	33414	10474.182212844472	26
0	33415	10474.475075460276	25
0	33419	10475.391886490085	26
0	33420	10476.005654846555	25
0	33423	10477.38776326613	24
0	33427	10478.532695675745	25
0	33429	10479.083276134692	26
0	33430	10479.119181815213	25
0	33434	10479.605057082028	26
0	33436	10480.658972832415	27
0	33437	10480.888102033412	26
0	33440	10482.842169125615	25
0	33443	10484.680859738266	24
0	33447	10485.977909280019	25
0	33449	10486.251857975537	26
0	33450	10486.586821938729	25
0	33454	10486.6935728048	26
0	33456	10487.730446293898	27
0	33457	10488.100634294799	26
0	33461	10488.147999295514	27
0	33462	10489.445138664408	26
0	33466	10489.859487267498	27
0	33468	10490.348012360425	28
0	33469	10490.998224403201	27
0	33473	10492.074533423821	28
0	33474	10492.936640159836	27
0	33478	10493.249931222716	28
0	33480	10493.545431137216	29
0	33482	10493.983276914023	30
0	33483	10494.156459225951	29
0	33487	10494.920435424937	30
0	33488	10495.665348763256	29
0	33492	10496.240624978018	30
0	33493	10497.107586849718	29
0	33497	10497.22722982218	30
0	33498	10498.515122750266	29
0	33501	10499.971555112912	28
0	33505	10500.731586569255	29
0	33506	10501.540404320745	28
0	33509	10502.775565677745	27
0	33513	10504.267674677266	28
0	33515	10504.65194169299	29
0	33516	10504.731860310076	28
0	33519	10506.450782657279	27
0	33522	10508.378235882012	26
0	33525	10510.051529608531	25
0	33529	10510.840791362823	26
0	33531	10511.307330007531	27
0	33533	10511.508240156329	28
0	33535	10511.805578414858	29
0	33536	10511.930870223468	28
0	33539	10513.768060498549	27
0	33543	10514.353271825767	28
0	33545	10514.433751164697	29
0	33547	10515.077352058732	30
0	33548	10515.254370458475	29
0	33552	10515.792529193965	30
0	33553	10516.474430081485	29
0	33557	10516.766153517359	30
0	33559	10518.252045364026	31
0	33560	10518.42127255523	30
0	33564	10519.077401585743	31
0	33566	10519.458332306024	32
0	33567	10519.79435828687	31
0	33570	10520.999273688768	30
0	33574	10521.683649111002	31
0	33575	10522.83987962683	30
0	33578	10524.570696233821	29
0	33582	10526.035027456268	30
0	33583	10526.193124614146	29
0	33587	10526.783360320478	30
0	33589	10527.467904191787	31
0	33590	10528.076157218267	30
0	33594	10528.677744798447	31
0	33595	10529.519892268305	30
0	33599	10529.801557881084	31
0	33600	10531.074098844317	30
0	33604	10531.096000838167	31
0	33606	10532.258619815435	32
0	33607	10532.943358871577	31
0	33611	10534.100342524025	32
0	33612	10534.750663349082	31
0	33616	10535.154289064756	32
0	33617	10536.540176482362	31
0	33621	10537.323329623952	32
0	33623	10537.814270465754	33
0	33624	10538.275520127875	32
0	33627	10539.648118271915	31
0	33631	10540.213864238441	32
0	33632	10541.21053379034	31
0	33635	10543.141329606672	30
0	33639	10543.855407237947	31
0	33640	10544.4143055175	30
0	33644	10544.959259308137	31
0	33646	10545.590247222438	32
0	33647	10546.214038464663	31
0	33651	10547.047996082996	32
0	33652	10548.171674171512	31
0	33655	10549.631203374502	30
0	33659	10549.758401093661	31
0	33660	10551.521360253033	30
0	33664	10552.810063147591	31
0	33665	10552.866224830088	30
0	33671	10553.495057919316	31
0	33672	10554.559854958628	30
0	33676	10554.973571087729	31
0	33678	10555.024806795178	32
0	33679	10555.769345798951	31
0	33683	10556.439308909329	32
0	33684	10557.041294731435	31
0	33689	10558.660012962532	30
0	33692	10560.445589784582	29
0	33696	10560.840028388538	30
0	33698	10561.941549156284	31
0	33699	10562.294235494223	30
0	33703	10563.229616216018	31
0	33704	10563.701013225552	30
0	33708	10565.291225795073	31
0	33709	10565.521985918518	30
0	33713	10566.284879044657	31
0	33714	10566.820604491841	30
0	33718	10567.619957971291	31
0	33719	10568.514285022255	30
0	33723	10569.322392429686	31
0	33724	10570.412583532419	30
0	33728	10571.168077619322	31
0	33729	10572.02401243956	30
0	33733	10572.55291336917	31
0	33734	10573.521418897856	30
0	33738	10574.557358558851	31
0	33739	10575.07024892946	30
0	33745	10575.98395685682	31
0	33747	10576.22191075378	32
0	33749	10576.353220936475	33
0	33750	10576.87437966415	32
0	33754	10577.33077079266	33
0	33755	10578.169473970358	32
0	33758	10579.904486227457	31
0	33762	10580.942680106531	32
0	33763	10581.900403956373	31
0	33767	10582.99848396122	32
0	33768	10583.567324297738	31
0	33772	10585.305475085343	32
0	33773	10585.438723279585	31
0	33777	10587.156576429501	32
0	33778	10587.220138935421	31
0	33782	10587.345029964062	32
0	33784	10588.071194031641	33
0	33785	10588.717240760524	32
0	33788	10590.319711053048	31
0	33792	10590.569725249435	32
0	33794	10590.91360580726	33
0	33795	10592.306011819702	32
0	33798	10594.078086992588	31
0	33802	10594.222759535642	32
0	33803	10596.077120827559	31
0	33807	10597.07339012158	32
0	33808	10597.413132712107	31
0	33812	10598.597103569989	32
0	33813	10599.046246899899	31
0	33817	10599.163427392799	32
0	33819	10599.527218027461	33
0	33820	10600.395325422708	32
0	33823	10602.228297272932	31
0	33827	10602.768263853468	32
0	33829	10603.057708908871	33
0	33830	10603.797866344873	32
0	33834	10603.852231407456	33
0	33836	10604.724324491923	34
0	33837	10605.664993047018	33
0	33841	10606.401612532608	34
0	33842	10607.35175469951	33
0	33846	10607.375904088958	34
0	33847	10608.703815862772	33
0	33850	10610.585226332073	32
0	33854	10611.019795608773	33
0	33855	10611.809157989968	32
0	33858	10613.429154114847	31
0	33862	10614.293786847346	32
0	33864	10614.371154227786	33
0	33865	10614.637542755206	32
0	33869	10614.691425128462	33
0	33871	10615.767326314747	34
0	33873	10616.238509708305	35
0	33874	10616.564106315982	34
0	33878	10617.011030805222	35
0	33879	10617.947132475909	34
0	33883	10618.191286777506	35
0	33885	10618.856977166982	36
0	33886	10619.839292738263	35
0	33890	10620.817357193045	36
0	33891	10621.712937560168	35
0	33894	10623.602685546179	34
0	33898	10624.452436627209	35
0	33900	10625.20547312904	36
0	33902	10625.280019287796	37
0	33903	10625.551070413788	36
0	33906	10626.907082609509	35
0	33910	10627.144541920703	36
0	33911	10628.657936913569	35
0	33915	10629.226002636042	36
0	33916	10629.908118209478	35
0	33920	10630.766819713846	36
0	33923	10631.758525002052	35
0	33927	10632.032425177853	36
0	33928	10633.373533646253	35
0	33932	10634.305126489237	36
0	33934	10635.043161994361	37
0	33935	10635.269009051894	36
0	33938	10636.594614230518	35
0	33942	10636.791978543972	36
0	33944	10637.656215410842	37
0	33945	10638.462467666019	36
0	33948	10639.892633007702	35
0	33952	10640.368101542014	36
0	33954	10640.471630422071	37
0	33956	10640.626821499561	38
0	33957	10641.586199185115	37
0	33963	10642.89519977656	38
0	33964	10643.52279398558	37
0	33968	10644.29872899326	38
0	33969	10644.864397227068	37
0	33973	10646.082746839546	38
0	33974	10646.496055602331	37
0	33977	10647.927904596973	36
0	33980	10649.461412498776	35
0	33984	10649.481707337917	36
0	33985	10650.90351614156	35
0	33988	10652.23659479418	34
0	33992	10652.716434320591	35
0	33993	10653.948764783751	34
0	33997	10654.310241133238	35
0	33998	10655.362789846632	34
0	34001	10656.653817342456	33
0	34004	10657.978061483103	32
0	34008	10658.448902475311	33
0	34009	10659.420221421915	32
0	34013	10659.526738681554	33
0	34014	10661.170786734159	32
0	34017	10662.789527683939	31
0	34020	10664.222477298464	30
0	34024	10665.664648108144	31
0	34026	10665.982998381201	32
0	34027	10666.130412246521	31
0	34031	10666.667374636636	32
0	34032	10667.814258097533	31
0	34036	10668.357279102219	32
0	34038	10668.459246118404	33
0	34040	10668.579117056094	34
0	34041	10669.618494436007	33
0	34045	10670.212306411048	34
0	34046	10671.091969236966	33
0	34050	10671.809683954612	34
0	34051	10672.303154588725	33
0	34054	10673.709456865724	32
0	34058	10674.451535419909	33
0	34060	10674.68484889705	34
0	34061	10674.995713439632	33
0	34064	10676.328029697437	32
0	34068	10676.375859854863	33
0	34072	10677.278666141	34
0	34074	10677.825970028616	35
0	34075	10677.959154936906	34
0	34079	10678.951846614201	35
0	34081	10679.547397186573	36
0	34082	10679.933634193849	35
0	34086	10680.168134612262	36
0	34087	10681.807775089938	35
0	34091	10683.007467458894	36
0	34092	10683.39651130424	35
0	34095	10684.868721981767	34
0	34099	10685.045497600802	35
0	34101	10685.987922887725	36
0	34102	10686.55598426615	35
0	34107	10688.111282205629	34
0	34111	10689.205999841605	35
0	34112	10689.709494643706	34
0	34116	10689.73052442563	35
0	34118	10690.543016969463	36
0	34119	10691.036624844047	35
0	34123	10691.13738387986	36
0	34124	10692.793575350987	35
0	34128	10692.9615615424	36
0	34129	10694.56021864214	35
0	34132	10695.794087533513	34
0	34136	10696.027935546581	35
0	34138	10696.786158612691	36
0	34139	10697.686032662401	35
0	34143	10697.812001056918	36
0	34145	10698.096378250289	37
0	34146	10699.351502116444	36
0	34150	10699.363310140624	37
0	34152	10700.142943627277	38
0	34153	10700.684083024087	37
0	34156	10702.060477305623	36
0	34159	10703.393058335642	35
0	34163	10703.861197812903	36
0	34165	10704.568751489988	37
0	34166	10704.851969694021	36
0	34170	10706.180617243415	37
0	34171	10706.386693798612	36
0	34175	10706.734160855344	37
0	34176	10707.753614459234	36
0	34179	10709.59602788766	35
0	34183	10710.744963120012	36
0	34184	10710.849176264788	35
0	34187	10712.375773725706	34
0	34190	10714.040132817487	33
0	34194	10714.762190348563	34
0	34196	10715.037041488041	35
0	34197	10715.576396744932	34
0	34201	10716.005874734154	35
0	34202	10717.117192362296	34
0	34205	10718.475348474877	33
0	34208	10720.05863146116	32
0	34212	10720.365819516567	33
0	34213	10721.961752110207	32
0	34217	10722.952655087103	33
0	34218	10723.51102229827	32
0	34222	10724.074037471377	33
0	34224	10724.19210598899	34
0	34225	10724.837387341679	33
0	34229	10725.118605480003	34
0	34230	10726.121144168683	33
0	34234	10726.538509858502	34
0	34236	10727.22239451226	35
0	34237	10728.03382909228	34
0	34241	10729.643528769217	35
0	34242	10729.846034417906	34
0	34245	10731.090142976725	33
0	34248	10732.709576394641	32
0	34251	10734.168461072304	31
0	34255	10734.950635642679	32
0	34256	10735.651519895577	31
0	34260	10736.086551077964	32
0	34261	10737.059937193849	31
0	34265	10737.752343943358	32
0	34267	10737.959321545756	33
0	34269	10738.249634135379	34
0	34270	10738.603578723268	33
0	34274	10739.246166173227	34
0	34275	10740.34338972182	33
0	34279	10740.379919979039	34
0	34281	10741.18113301833	35
0	34282	10741.563121101679	34
0	34285	10743.263600301044	33
0	34289	10743.653388620673	34
0	34290	10745.03343420499	33
0	34294	10745.222913660462	34
0	34295	10746.290357316146	33
0	34299	10746.518947695802	34
0	34301	10747.017873265069	35
0	34302	10748.284064552794	34
0	34306	10748.672487410581	35
0	34308	10749.279489778569	36
0	34309	10749.679680741998	35
0	34314	10751.199365069392	34
0	34318	10751.438867968534	35
0	34319	10752.459004443	34
0	34323	10752.738230901564	35
0	34325	10753.566257102338	36
0	34326	10754.377962721	35
0	34330	10756.040859766385	36
0	34331	10756.332614652673	35
0	34334	10757.856037587906	34
0	34338	10758.286285192006	35
0	34340	10759.292158253225	36
0	34341	10759.30342556187	35
0	34345	10759.769749024824	36
0	34346	10760.540465818579	35
0	34349	10762.325669352944	34
0	34353	10763.164174888173	35
0	34354	10763.838028055663	34
0	34357	10765.163220833103	33
0	34360	10766.997537223297	32
0	34364	10767.119004898571	33
0	34366	10767.44896567758	34
0	34367	10768.272505838471	33
0	34370	10769.700780773024	32
0	34373	10771.433823781694	31
0	34376	10773.290727534192	30
0	34380	10774.104316957459	31
0	34382	10774.371855827614	32
0	34383	10774.963918167958	31
0	34386	10776.177589145722	30
0	34390	10777.19477456501	31
0	34392	10777.464604037746	32
0	34393	10777.531435512426	31
0	34397	10777.684927275216	32
0	34399	10778.327541914995	33
0	34400	10779.07652443857	32
0	34404	10780.432468534022	33
0	34405	10780.576389011602	32
0	34409	10782.197555028279	33
0	34410	10782.248813983287	32
0	34413	10784.100627755235	31
0	34416	10785.938039754751	30
0	34420	10787.082108047205	31
0	34422	10787.120065051754	32
0	34424	10787.143472202992	33
0	34426	10787.201446080372	34
0	34427	10787.497123955983	33
0	34431	10787.895110139981	34
0	34433	10788.341279230565	35
0	34435	10788.494502431734	36
0	34436	10789.277161795321	35
0	34440	10789.664417322791	36
0	34441	10791.172983560945	35
0	34444	10792.947411698337	34
0	34448	10793.712593953308	35
0	34449	10794.22378313956	34
0	34453	10794.421323754837	35
0	34455	10795.452518928455	36
0	34456	10795.780626407686	35
0	34460	10796.269223652098	36
0	34461	10797.508324543062	35
0	34465	10798.145832175904	36
0	34467	10798.258575088592	37
0	34469	10798.761709711232	38
0	34470	10799.104637507211	37
0	34473	10800.539117138695	36
0	34476	10802.318291763824	35
0	34480	10802.674740482235	36
0	34481	10804.071966132012	35
0	34484	10805.29667489161	34
0	34488	10805.506454232453	35
0	34490	10806.014812277981	36
0	34491	10807.028911472719	35
0	34495	10808.566365370034	36
0	34496	10808.988611751098	35
0	34500	10809.768868217429	36
0	34502	10809.832465922336	37
0	34504	10810.071177764075	38
0	34505	10810.514548508499	37
0	34508	10812.478365807284	36
0	34511	10813.859017941032	35
0	34514	10815.210963556964	34
0	34518	10815.568544312419	35
0	34519	10816.501180008475	34
0	34522	10817.842404549804	33
0	34526	10818.345636891428	34
0	34527	10819.235525432837	33
0	34530	10820.973505616796	32
0	34534	10821.08636306264	33
0	34535	10822.848239152555	32
0	34538	10824.072420836475	31
0	34542	10824.364495519336	32
0	34543	10825.339402832698	31
0	34546	10826.679250453088	30
0	34549	10828.095020807024	29
0	34552	10829.898531169306	28
0	34556	10830.080946218013	29
0	34558	10831.559184226697	30
0	34559	10831.630925121765	29
0	34563	10832.26483994311	30
0	34564	10833.480600728887	29
0	34568	10833.712496883017	30
0	34570	10834.230060761081	31
0	34572	10834.359672309426	32
0	34574	10834.625699514789	33
0	34575	10835.232266802016	32
0	34579	10835.59156015755	33
0	34581	10837.054040820339	34
0	34582	10837.162366402197	33
0	34586	10837.61560367248	34
0	34587	10838.913685209538	33
0	34590	10840.202219689871	32
0	34594	10841.333308108163	33
0	34595	10841.432806543867	32
0	34599	10841.825931500082	33
0	34600	10843.02856185441	32
0	34604	10843.61992541151	33
0	34606	10844.149203208983	34
0	34607	10844.338534381474	33
0	34611	10845.518020162211	34
0	34612	10846.062793884473	33
0	34616	10846.318158863364	34
0	34617	10847.877270120243	33
0	34621	10848.972813790249	34
0	34622	10849.14644365781	33
0	34625	10850.575070825452	32
0	34629	10850.663403543605	33
0	34631	10851.112680384361	34
0	34633	10851.675736860525	35
0	34634	10852.390005644644	34
0	34638	10853.481729935148	35
0	34639	10854.234729394736	34
0	34643	10854.779390121111	35
0	34644	10856.024397108192	34
0	34648	10857.611408559586	35
0	34649	10857.630047310377	34
0	34653	10858.236579385652	35
0	34654	10859.598639566498	34
0	34658	10860.086216829802	35
0	34659	10861.262243358279	34
0	34662	10863.234671016457	33
0	34665	10864.655170588615	32
0	34669	10864.832225977686	33
0	34671	10865.681986580735	34
0	34672	10866.188871652308	33
0	34676	10867.158041487598	34
0	34678	10867.340537186518	35
0	34679	10867.814351551282	34
0	34682	10869.600841166685	33
0	34688	10870.307279484621	34
0	34689	10870.838180399361	33
0	34693	10872.070576991127	34
0	34694	10872.513765246841	33
0	34697	10873.895396132256	32
0	34701	10875.433436192478	33
0	34702	10875.492833078328	32
0	34706	10876.531861884767	33
0	34707	10877.214889819595	32
0	34710	10878.669795056852	31
0	34714	10879.959427288291	32
0	34715	10880.585997449654	31
0	34719	10881.445108426476	32
0	34721	10882.067594685429	33
0	34722	10882.226215930889	32
0	34725	10883.980489878776	31
0	34729	10884.83784590713	32
0	34731	10885.660644682545	33
0	34732	10885.868249747204	32
0	34736	10886.403460694745	33
0	34737	10887.536996657076	32
0	34740	10889.17477111281	31
0	34744	10889.521607097816	32
0	34745	10890.675528267819	31
0	34749	10891.738322223728	32
0	34750	10892.363459564607	31
0	34753	10893.739659162472	30
0	34757	10894.767749164357	31
0	34758	10895.125396165672	30
0	34761	10897.106047580066	29
0	34765	10898.599341812602	30
0	34766	10898.862375772978	29
0	34770	10899.147195475507	30
0	34771	10900.770771318908	29
0	34775	10901.077728528407	30
0	34776	10902.541590418528	29
0	34780	10903.139886800353	30
0	34782	10903.263347946983	31
0	34783	10904.450369136083	30
0	34787	10904.466684768219	31
0	34789	10905.667332434783	32
0	34790	10905.80556016923	31
0	34794	10906.642231882364	32
0	34795	10907.223522796902	31
0	34799	10908.629107190939	32
0	34800	10908.700045285049	31
0	34804	10909.080541752374	32
0	34805	10909.96889675432	31
0	34809	10911.153391222981	32
0	34811	10911.165867946476	33
0	34812	10911.360715844157	32
0	34815	10912.887364106114	31
0	34818	10914.130183723244	30
0	34822	10914.791090419878	31
0	34824	10914.881150391993	32
0	34825	10915.880238083611	31
0	34829	10916.606165289666	32
0	34830	10917.484082451696	31
0	34834	10918.470010945478	32
0	34835	10919.077820695611	31
0	34838	10920.627516377578	30
0	34842	10921.654983551185	31
0	34843	10921.920677848766	30
0	34847	10923.428968700129	31
0	34848	10923.668030535663	30
0	34852	10924.643906227023	31
0	34853	10925.404396781372	30
0	34857	10926.090338421765	31
0	34858	10927.102150903503	30
0	34862	10927.562204700058	31
0	34864	10928.19875551171	32
0	34865	10928.557961729402	31
0	34868	10930.430596745061	30
0	34872	10930.46159272487	31
0	34874	10930.77542428731	32
0	34875	10932.338421358587	31
0	34878	10933.570455565164	30
0	34881	10935.205923550809	29
0	34884	10936.508931674296	28
0	34888	10936.94525174183	29
0	34890	10937.296986382923	30
0	34892	10937.416615064566	31
0	34893	10938.267485632794	30
0	34896	10939.785900130728	29
0	34900	10939.884139249846	30
0	34901	10941.481354202749	29
0	34905	10942.286948917648	30
0	34906	10942.983223523432	29
0	34910	10943.070116312131	30
0	34912	10944.133030945877	31
0	34913	10944.368207234563	30
0	34916	10945.649333846802	29
0	34920	10945.781020167039	30
0	34922	10945.813936045492	31
0	34923	10947.223289523134	30
0	34927	10947.600501679812	31
0	34928	10949.08286366039	30
0	34932	10949.335997454057	31
0	34933	10950.328025342385	30
0	34938	10952.252939331392	29
0	34941	10953.756448882679	28
0	34944	10955.562368714111	27
0	34948	10955.890465887411	28
0	34950	10956.64877902172	29
0	34951	10957.010277156206	28
0	34954	10958.634355257685	27
0	34958	10958.649967845604	28
0	34960	10959.772780767742	29
0	34961	10960.080572303245	28
0	34965	10960.695011705019	29
0	34966	10961.608881575288	28
0	34970	10962.006710038545	29
0	34971	10963.035386281134	28
0	34974	10964.547666346328	27
0	34978	10965.821585966378	28
0	34980	10966.078057975186	29
0	34981	10966.441179206641	28
0	34985	10967.146701427617	29
0	34986	10967.782970230141	28
0	34989	10969.473844053642	27
0	34992	10970.935272342571	26
0	34995	10972.345621123583	25
0	34999	10973.305372383113	26
0	35000	10973.673120467969	25
0	35004	10974.949092886621	26
0	35005	10975.015140549884	25
0	35008	10976.743175654345	24
0	35012	10977.470533363733	25
0	35013	10978.312684792884	24
0	35017	10978.877072805263	25
0	35019	10978.983441917227	26
0	35021	10979.494908319212	27
0	35022	10980.15639483095	26
0	35025	10981.785987038769	25
0	35029	10982.261713492599	26
0	35031	10982.707773797787	27
0	35032	10983.552743523985	26
0	35036	10984.336845814801	27
0	35037	10985.535370943367	26
0	35041	10985.763542839921	27
0	35043	10986.018884460228	28
0	35045	10986.238579644096	29
0	35046	10986.874380836121	28
0	35050	10987.667628904243	29
0	35051	10988.111891001879	28
0	35054	10989.860713880553	27
0	35058	10990.027155532691	28
0	35059	10991.195171742185	27
0	35063	10991.982223018359	28
0	35064	10992.686692477434	27
0	35068	10992.894862205148	28
0	35069	10994.51581024327	27
0	35073	10996.086072440486	28
0	35074	10996.175049673623	27
0	35078	10996.828448622119	28
0	35079	10997.907773983336	27
0	35083	10998.363845636966	28
0	35085	10998.796402905975	29
0	35086	10999.642809055044	28
0	35090	11000.792106419337	29
0	35092	11000.968977697377	30
0	35093	11001.235242304249	29
0	35097	11001.750600690901	30
0	35099	11002.264999280767	31
0	35100	11003.027832629202	30
0	35104	11003.100898207305	31
0	35106	11003.260359896447	32
0	35108	11003.691336015573	33
0	35109	11004.26252463278	32
0	35113	11004.972592780832	33
0	35114	11006.049692207059	32
0	35118	11006.447216332143	33
0	35120	11006.472106986142	34
0	35121	11007.483460440716	33
0	35125	11007.95095100518	34
0	35126	11009.272053688063	33
0	35129	11010.621965803808	32
0	35132	11012.286117115846	31
0	35136	11013.031412011649	32
0	35137	11013.830251570461	31
0	35141	11014.487613001981	32
0	35143	11015.456171477296	33
0	35144	11015.826242761729	32
0	35148	11016.168947968799	33
0	35150	11016.246321436275	34
0	35152	11016.954785301658	35
0	35153	11017.031948558284	34
0	35157	11017.462884620893	35
0	35158	11018.462044143347	34
0	35161	11020.333688213719	33
0	35167	11021.393944946337	34
0	35168	11021.889382849304	33
0	35172	11022.576178431298	34
0	35173	11023.233073016671	33
0	35177	11023.786613171777	34
0	35179	11023.966321689191	35
0	35181	11024.153202418019	36
0	35182	11025.114918311728	35
0	35185	11026.476256073868	34
0	35189	11027.06049242025	35
0	35191	11027.631715904902	36
0	35192	11028.164528788483	35
0	35196	11028.19717264412	36
0	35198	11028.810734009015	37
0	35199	11030.117444868429	36
0	35202	11031.50997425825	35
0	35205	11033.172395367219	34
0	35209	11034.422067339668	35
0	35210	11034.662517114959	34
0	35214	11036.010438681782	35
0	35215	11036.192450424328	34
0	35219	11036.355643811157	35
0	35221	11036.802820319052	36
0	35222	11038.136934674948	35
0	35226	11038.81604883091	36
0	35228	11038.863474094948	37
0	35229	11040.087152562893	36
0	35233	11040.104791657819	37
0	35234	11041.672864558964	36
0	35238	11042.204501102714	37
0	35239	11043.255809699229	36
0	35243	11043.29589312847	37
0	35244	11045.010810516818	36
0	35248	11046.56791034217	37
0	35249	11046.610541471137	36
0	35253	11047.122602337077	37
0	35254	11048.593754764689	36
0	35258	11048.610421307126	37
0	35259	11050.445610586783	36
0	35262	11052.391632822199	35
0	35266	11053.235403905975	36
0	35267	11054.238283123678	35
0	35271	11054.298641615909	36
0	35272	11055.953394875905	35
0	35275	11057.478700772902	34
0	35279	11058.126847060069	35
0	35280	11058.900962485416	34
0	35284	11060.531370969904	35
0	35285	11060.68160042469	34
0	35288	11061.937768578199	33
0	35292	11062.194159723245	34
0	35294	11062.4644808071	35
0	35295	11063.635655480293	34
0	35301	11065.270971976747	35
0	35302	11065.627758825054	34
0	35306	11066.538976055042	35
0	35308	11066.76346189147	36
0	35309	11067.220176807275	35
0	35312	11068.59115658742	34
0	35316	11068.642354211212	35
0	35317	11070.418769378072	34
0	35321	11070.984622078283	35
0	35322	11072.339834337166	34
0	35326	11073.99251051985	35
0	35327	11074.018987144201	34
0	35330	11075.530523059933	33
0	35334	11076.920601390239	34
0	35335	11077.005840794785	33
0	35338	11078.583487858852	32
0	35343	11080.028160695588	31
0	35347	11080.096623050682	32
0	35349	11080.13915772402	33
0	35351	11080.638045961347	34
0	35353	11081.149769884857	35
0	35354	11081.443428342273	34
0	35357	11082.861317661447	33
0	35361	11083.203470828803	34
0	35363	11083.853218848513	35
0	35364	11084.624980382664	34
0	35368	11085.139915268352	35
0	35369	11086.356827570354	34
0	35373	11086.577894306663	35
0	35374	11088.000044736867	34
0	35377	11089.451694154409	33
0	35381	11089.467306503157	34
0	35383	11090.439910353785	35
0	35384	11090.868690630649	34
0	35388	11091.10030923883	35
0	35390	11091.596705924598	36
0	35391	11092.656759607089	35
0	35395	11092.934907782942	36
0	35396	11094.525044647833	35
0	35400	11094.563939710113	36
0	35401	11095.83810716555	35
0	35405	11097.214287446039	36
0	35406	11097.834215193656	35
0	35410	11098.116432835356	36
0	35412	11098.293241220641	37
0	35414	11098.605356414852	38
0	35416	11099.118436293656	39
0	35417	11099.575225031418	38
0	35421	11100.226237655406	39
0	35423	11100.524648663241	40
0	35424	11101.445608079103	39
0	35428	11102.184437224522	40
0	35429	11103.261219994393	39
0	35433	11103.271434348466	40
0	35434	11104.701202498791	39
0	35437	11106.128169154977	38
0	35440	11107.518982049306	37
0	35443	11109.331982648973	36
0	35447	11109.51980601082	37
0	35448	11111.331061583985	36
0	35452	11112.288758609635	37
0	35454	11112.554483118817	38
0	35455	11112.784044476454	37
0	35459	11113.889965366843	38
0	35460	11114.320468059969	37
0	35463	11115.906978017506	36
0	35466	11117.239141379711	35
0	35470	11117.302069323412	36
0	35472	11117.575415445289	37
0	35473	11119.085409490247	36
0	35476	11121.021501339827	35
0	35479	11122.610156029877	34
0	35482	11123.971776749608	33
0	35486	11124.456274537589	34
0	35487	11125.493725792733	33
0	35491	11125.945615057916	34
0	35493	11126.032151380874	35
0	35494	11127.132688584966	34
0	35498	11127.760425137028	35
0	35499	11128.497065453646	34
0	35503	11128.750972037211	35
0	35504	11130.46075642616	34
0	35508	11131.55789429613	35
0	35509	11132.373503966671	34
0	35512	11134.087003574003	33
0	35516	11134.344414725851	34
0	35518	11135.324676158751	35
0	35519	11135.64884759285	34
0	35523	11135.677828127879	35
0	35524	11137.335146825989	34
0	35528	11138.07904836922	35
0	35530	11138.627891055219	36
0	35531	11139.080689407741	35
0	35535	11139.53068908726	36
0	35537	11140.456934949266	37
0	35538	11140.742169315783	36
0	35542	11141.430222805157	37
0	35543	11142.302622921435	36
0	35546	11144.252571826843	35
0	35549	11145.836628938322	34
0	35553	11146.15926933392	35
0	35554	11147.278962624674	34
0	35557	11148.7407513753	33
0	35561	11148.976435324325	34
0	35563	11149.525985651893	35
0	35564	11150.666438760464	34
0	35568	11151.223916804854	35
0	35570	11151.453043132733	36
0	35571	11152.137816604455	35
0	35574	11153.688078542468	34
0	35578	11155.300582663253	35
0	35580	11155.422418185042	36
0	35581	11155.61983575583	35
0	35585	11155.755004195552	36
0	35587	11156.978088401013	37
0	35588	11157.183109713761	36
0	35591	11158.593540420053	35
0	35597	11160.291229179412	36
0	35599	11160.508839491595	37
0	35600	11160.558108472121	36
0	35603	11161.816093379301	35
0	35607	11162.56175413178	36
0	35609	11163.053192658275	37
0	35610	11163.126139283781	36
0	35613	11164.95384432063	35
0	35617	11164.98405187308	36
0	35618	11166.80814713635	35
0	35621	11168.061924543832	34
0	35624	11169.427266514715	33
0	35628	11170.452430103822	34
0	35629	11170.732394317951	33
0	35633	11171.326554730472	34
0	35635	11171.574552641209	35
0	35636	11172.179665279057	34
0	35639	11173.639206090797	33
0	35644	11175.249437289354	32
0	35647	11176.790061697033	31
0	35650	11178.244013550174	30
0	35654	11179.563744921918	31
0	35655	11179.768253749278	30
0	35659	11180.931747446691	31
0	35660	11181.702606182214	30
0	35663	11183.539256895188	29
0	35667	11183.632542607469	30
0	35668	11185.129474469688	29
0	35672	11185.582877350788	30
0	35674	11185.819886613909	31
0	35675	11186.694880730886	30
0	35679	11187.177756119898	31
0	35680	11188.637123646814	30
0	35684	11189.902712610962	31
0	35685	11189.93565279771	30
0	35689	11190.41070276098	31
0	35691	11190.86884040805	32
0	35694	11191.271053660888	31
0	35698	11191.655548203237	32
0	35700	11192.200305155013	33
0	35702	11193.037555651152	34
0	35703	11193.097429714951	33
0	35707	11193.46978425758	34
0	35708	11194.404120208363	33
0	35712	11194.420877468696	34
0	35713	11195.801501830335	33
0	35718	11197.307030918862	32
0	35721	11198.548864749859	31
0	35725	11200.419209242558	32
0	35726	11200.531006890017	31
0	35730	11201.387363848605	32
0	35732	11201.850236153203	33
0	35733	11202.217853141803	32
0	35737	11202.77763741448	33
0	35738	11203.740391673188	32
0	35741	11205.035330768529	31
0	35744	11206.400266438018	30
0	35749	11207.915460036735	29
0	35753	11208.511224309791	30
0	35755	11208.823134120497	31
0	35756	11209.615744321275	30
0	35760	11209.788356826802	31
0	35762	11210.011110441872	32
0	35764	11210.647828849124	33
0	35765	11211.317557385977	32
0	35768	11212.718463867571	31
0	35771	11214.04207964823	30
0	35775	11214.492854759133	31
0	35777	11214.687791445028	32
0	35778	11215.490466584306	31
0	35782	11216.484840070713	32
0	35784	11216.76028052694	33
0	35785	11217.267674589012	32
0	35789	11217.879543161762	33
0	35791	11218.653144914571	34
0	35792	11218.65333755691	33
0	35796	11219.325355832807	34
0	35798	11219.820280694585	35
0	35799	11220.315664297197	34
0	35803	11221.230705038609	35
0	35804	11221.580146000948	34
0	35808	11221.988399187088	35
0	35809	11223.119983971905	34
0	35812	11224.988295467425	33
0	35816	11226.292349505031	34
0	35817	11226.808500755433	33
0	35821	11226.924049676463	34
0	35822	11228.121226258431	33
0	35826	11228.298094969361	34
0	35828	11228.536571510334	35
0	35829	11230.013944014948	34
0	35833	11230.675621127546	35
0	35834	11231.998335250694	34
0	35838	11232.340686411435	35
0	35840	11232.95026203099	36
0	35841	11233.552697842981	35
0	35844	11235.142148334014	34
0	35848	11235.310122294524	35
0	35849	11236.369257617409	34
0	35853	11236.598764158536	35
0	35855	11236.985775251883	36
0	35856	11238.201332137215	35
0	35859	11239.545984293374	34
0	35863	11240.196033877421	35
0	35864	11241.086979136283	34
0	35867	11242.8300336637	33
0	35871	11244.25120855675	34
0	35872	11244.389972975331	33
0	35876	11244.580953549213	34
0	35878	11245.171126387144	35
0	35879	11246.237571064609	34
0	35882	11247.953826070244	33
0	35885	11249.25619397335	32
0	35889	11249.973304017504	33
0	35890	11250.956727431195	32
0	35893	11252.159540496247	31
0	35899	11252.950223141652	32
0	35900	11253.599545740003	31
0	35903	11254.829590287285	30
0	35907	11255.877700614049	31
0	35908	11256.166077838505	30
0	35911	11258.119664201552	29
0	35915	11258.727967705067	30
0	35917	11258.781922089196	31
0	35919	11258.787281926413	32
0	35921	11258.986445269743	33
0	35922	11259.373306911478	32
0	35926	11259.980745441751	33
0	35928	11260.669973422181	34
0	35929	11261.046163164305	33
0	35933	11261.27391761946	34
0	35935	11261.914723509202	35
0	35937	11261.939101460916	36
0	35939	11262.149374506171	37
0	35941	11262.994299487107	38
0	35942	11263.03967510056	37
0	35946	11263.708732754291	38
0	35947	11264.773422023694	37
0	35951	11266.316283594619	38
0	35952	11266.444059343117	37
0	35955	11267.70883728754	36
0	35959	11268.561739224712	37
0	35960	11269.520315975922	36
0	35964	11269.681912745315	37
0	35966	11270.06939320254	38
0	35967	11271.119703879992	37
0	35971	11271.448003603387	38
0	35972	11272.554803113865	37
0	35976	11273.570781768962	38
0	35977	11274.527456953416	37
0	35980	11275.810161052311	36
0	35983	11277.279401619213	35
0	35988	11278.663367514724	34
0	35992	11278.954614999181	35
0	35994	11279.631333944953	36
0	35995	11280.08390915733	35
0	35999	11280.638835775676	36
0	36000	11281.714305331783	35
0	36004	11282.400783194808	36
0	36005	11283.415148130284	35
0	36008	11284.7967202295	34
0	36012	11284.997129138876	35
0	36013	11286.344856508859	34
0	36017	11286.391992193966	35
0	36018	11287.667999063284	34
0	36021	11289.237484190092	33
0	36025	11289.403401350922	34
0	36027	11289.857964589378	35
0	36028	11291.173877694682	34
0	36032	11291.434904255211	35
0	36033	11292.530499876142	34
0	36036	11293.842951251977	33
0	36040	11294.300484110325	34
0	36042	11294.414793029164	35
0	36043	11295.471596803182	34
0	36046	11296.745169922748	33
0	36050	11296.873235421816	34
0	36051	11298.638268932552	33
0	36055	11298.672325651244	34
0	36056	11300.088781379946	33
0	36059	11301.321134598591	32
0	36062	11302.592771851868	31
0	36066	11302.972200822213	32
0	36067	11303.86130716078	31
0	36071	11304.10972136567	32
0	36073	11305.280392075783	33
0	36074	11305.798276056387	32
0	36078	11306.446874142368	33
0	36080	11306.773428993071	34
0	36081	11307.176849706509	33
0	36085	11307.758161152712	34
0	36087	11308.132773221605	35
0	36089	11308.423785563234	36
0	36090	11309.033872011901	35
0	36094	11309.727229711091	36
0	36096	11309.76091265262	37
0	36097	11310.249526320436	36
0	36100	11312.086605542191	35
0	36104	11312.163044863075	36
0	36106	11312.54507450674	37
0	36107	11314.052978006602	36
0	36110	11315.32674354449	35
0	36113	11316.921640595087	34
0	36117	11317.29793120527	35
0	36119	11318.379008990403	36
0	36120	11318.594942312167	35
0	36124	11318.723597772215	36
0	36126	11319.13203532015	37
0	36128	11319.199775200898	38
0	36130	11319.424123005459	39
0	36131	11320.232882722692	38
0	36135	11320.859947520397	39
0	36137	11321.455949081421	40
0	36138	11322.2067012655	39
0	36142	11322.785509499997	40
0	36143	11323.826888101586	39
0	36146	11325.498393217512	38
0	36150	11325.589579656278	39
0	36151	11327.227745540664	38
0	36155	11327.423288511424	39
0	36157	11327.928431992716	40
0	36158	11328.737856209502	39
0	36162	11329.13413719203	40
0	36164	11330.393886038541	41
0	36165	11330.543207322657	40
0	36168	11332.539714315198	39
0	36172	11333.590036000082	40
0	36173	11334.18577578146	39
0	36177	11334.956978291133	40
0	36179	11334.991797261957	41
0	36180	11336.166696528196	40
0	36183	11337.568690628595	39
0	36186	11338.915994867719	38
0	36190	11339.921962705477	39
0	36192	11340.072256011165	40
0	36193	11340.527380483448	39
0	36196	11342.022278969585	38
0	36200	11342.085414873925	39
0	36201	11343.945689312032	38
0	36205	11344.132991030684	39
0	36207	11344.336726081902	40
0	36209	11345.311539680265	41
0	36210	11345.8002021965	40
0	36214	11346.893895417057	41
0	36215	11347.667174029573	40
0	36218	11349.370956735349	39
0	36222	11349.933990230329	40
0	36224	11350.634075305461	41
0	36225	11351.257348246163	40
0	36229	11352.22710491862	41
0	36230	11353.057885855844	40
0	36234	11353.44114825118	41
0	36236	11353.486362032733	42
0	36237	11354.612992032839	41
0	36241	11355.178965059705	42
0	36244	11355.830181352085	41
0	36248	11356.087139322779	42
0	36250	11356.30061753115	43
0	36252	11356.987372462674	44
0	36253	11357.132832641935	43
0	36256	11358.371647488548	42
0	36260	11359.131236771674	43
0	36261	11359.694148748963	42
0	36265	11360.535929843897	43
0	36266	11361.287996443583	42
0	36270	11361.635323657914	43
0	36272	11361.780523295794	44
0	36274	11361.896825282618	45
0	36275	11362.498493281229	44
0	36279	11363.72304728524	45
0	36280	11364.216188643536	44
0	36284	11364.430710410672	45
0	36286	11364.466926809205	46
0	36287	11365.548452487624	45
0	36291	11365.935844178849	46
0	36292	11367.318094435184	45
0	36296	11367.484546721694	46
0	36297	11368.983813010192	45
0	36300	11370.316154229491	44
0	36303	11372.247377973459	43
0	36307	11372.603222369874	44
0	36309	11372.853245452689	45
0	36310	11373.532621029428	44
0	36314	11374.447156314551	45
0	36315	11374.949027265831	44
0	36318	11376.188295821137	43
0	36321	11377.561553185842	42
0	36325	11378.343654554753	43
0	36327	11378.844096647563	44
0	36328	11379.491365814804	43
0	36334	11380.617911603696	44
0	36335	11381.21842290297	43
0	36339	11381.546416626276	44
0	36341	11381.872183064229	45
0	36342	11382.70506169427	44
0	36346	11383.060172029667	45
0	36348	11383.755519103657	46
0	36350	11384.493201178739	47
0	36351	11384.659315408988	46
0	36355	11384.802206088872	47
0	36357	11384.897733292483	48
0	36358	11386.246115311643	47
0	36362	11387.329650505646	48
0	36364	11387.667061942099	49
0	36365	11387.889959913527	48
0	36369	11389.176080417588	49
0	36370	11389.692986267281	48
0	36374	11390.249202849818	49
0	36375	11391.636845043523	48
0	36379	11391.715012234249	49
0	36380	11393.280931827461	48
0	36384	11393.578118799131	49
0	36385	11394.805250229349	48
0	36391	11395.53314006331	49
0	36392	11396.04691686522	48
0	36396	11396.077709556933	49
0	36398	11396.221252972923	50
0	36399	11397.388361551648	49
0	36402	11398.698696392996	48
0	36406	11399.43830639652	49
0	36408	11399.815845756427	50
0	36409	11400.528074849246	49
0	36413	11401.004151683331	50
0	36414	11402.343223506061	49
0	36417	11404.033646643942	48
0	36421	11404.697293111192	49
0	36422	11405.681690925395	48
0	36425	11407.419957610814	47
0	36431	11408.20398409194	48
0	36432	11409.03922668699	47
0	36436	11409.177533571671	48
0	36437	11410.829766054487	47
0	36440	11412.259942945687	46
0	36443	11413.801350702381	45
0	36446	11415.060462518817	44
0	36450	11415.994608447203	45
0	36452	11416.54026435334	46
0	36453	11416.960670679471	45
0	36457	11417.354670299858	46
0	36459	11417.535792638347	47
0	36461	11418.415356665724	48
0	36462	11418.52410428509	47
0	36465	11420.023127688504	46
0	36468	11421.235533222593	45
0	36472	11421.966918027706	46
0	36474	11422.388297545085	47
0	36475	11422.866005056947	46
0	36479	11423.18763677171	47
0	36481	11423.273953259459	48
0	36482	11424.212091761119	47
0	36485	11425.882697840444	46
0	36489	11425.977837077083	47
0	36491	11426.740728461127	48
0	36492	11427.097942521273	47
0	36495	11429.068313873968	46
0	36499	11430.125569857433	47
0	36500	11430.539655057936	46
0	36504	11431.171091629876	47
0	36506	11431.31724079377	48
0	36507	11431.965683003924	47
0	36511	11432.020542598552	48
0	36512	11433.378627384677	47
0	36516	11434.648321294239	48
0	36517	11434.798720406964	47
0	36520	11436.029870558194	46
0	36524	11436.750881977188	47
0	36525	11437.506031620725	46
0	36529	11438.248274059568	47
0	36531	11438.511911143424	48
0	36532	11438.983325692302	47
0	36536	11439.52949468707	48
0	36537	11440.920590536518	47
0	36541	11441.546675323531	48
0	36544	11442.830653468555	47
0	36548	11443.606349177904	48
0	36549	11444.254264020024	47
0	36553	11444.820957379213	48
0	36555	11445.432724129228	49
0	36558	11445.996013091168	48
0	36562	11445.996496200014	49
0	36563	11447.948137125036	48
0	36566	11449.337116031943	47
0	36570	11449.473099738769	48
0	36572	11449.922556935184	49
0	36573	11451.321846334858	48
0	36576	11452.985754366441	47
0	36579	11454.912134043536	46
0	36583	11454.938386726957	47
0	36584	11456.805154231413	46
0	36588	11456.8247959416	47
0	36590	11456.883383289826	48
0	36591	11458.045099939815	47
0	36596	11459.789032859578	46
0	36599	11461.030317550934	45
0	36602	11462.31699787028	44
0	36606	11462.579478256175	45
0	36608	11462.729438666131	46
0	36610	11462.983603827865	47
0	36611	11463.799728763884	46
0	36615	11464.385102801136	47
0	36616	11465.114520358516	46
0	36620	11466.02160628127	47
0	36621	11466.63017620392	46
0	36625	11466.676472738142	47
0	36626	11467.847164695373	46
0	36630	11468.287882797213	47
0	36632	11468.418910834916	48
0	36634	11468.520220104411	49
0	36635	11469.389275824687	48
0	36639	11469.390047271938	49
0	36640	11471.137281494251	48
0	36644	11471.275323547227	49
0	36646	11471.295426501782	50
0	36647	11472.356002823299	49
0	36651	11473.157438870948	50
0	36652	11474.282893579861	49
0	36655	11475.830851354485	48
0	36659	11476.107904091385	49
0	36660	11477.248863909987	48
0	36666	11478.694941099856	49
0	36667	11479.184886359086	48
0	36671	11479.552124895057	49
0	36672	11481.160824186017	48
0	36676	11481.40321787193	49
0	36677	11482.530260760186	48
0	36680	11484.426009911893	47
0	36684	11486.157762879062	48
0	36685	11486.234351585468	47
0	36689	11486.295852771502	48
0	36690	11488.11315364897	47
0	36694	11488.770254336314	48
0	36695	11489.629379336571	47
0	36699	11490.14614479473	48
0	36701	11490.207666156979	49
0	36702	11491.371015327086	48
0	36706	11491.886069882949	49
0	36707	11492.692606440221	48
0	36711	11492.702669685358	49
0	36712	11494.018783410114	48
0	36715	11495.486168106493	47
0	36719	11495.656800998849	48
0	36721	11495.66976131878	49
0	36723	11496.295253723536	50
0	36724	11496.736170932312	49
0	36727	11498.192281270992	48
0	36731	11498.379070070923	49
0	36732	11499.972593675215	48
0	36735	11501.423897547309	47
0	36739	11501.93188229032	48
0	36740	11502.871247309481	47
0	36743	11504.122406439145	46
0	36747	11504.197656710769	47
0	36749	11504.62732119024	48
0	36750	11505.428902049956	47
0	36754	11505.956868639774	48
0	36755	11507.094585760159	47
0	36759	11508.394680600178	48
0	36761	11508.634678749652	49
0	36762	11508.991665110213	48
0	36765	11510.293091159349	47
0	36768	11511.880226014217	46
0	36771	11513.229713302141	45
0	36775	11514.669362101956	46
0	36776	11514.791208613327	45
0	36780	11514.854270099579	46
0	36782	11515.981195195173	47
0	36783	11516.219368484279	46
0	36787	11516.877516952819	47
0	36789	11517.181242205982	48
0	36791	11517.624908588922	49
0	36792	11517.74597827032	48
0	36796	11517.973252229367	49
0	36797	11519.351081434672	48
0	36800	11520.578728879837	47
0	36803	11522.328635008109	46
0	36807	11522.354115581469	47
0	36809	11522.455098243698	48
0	36810	11524.257444312831	47
0	36813	11526.176917356101	46
0	36817	11527.773137969267	47
0	36818	11527.97846865229	46
0	36822	11528.136301863999	47
0	36824	11528.88479893649	48
0	36826	11529.084363482409	49
0	36827	11529.234851745178	48
0	36830	11530.583692386222	47
0	36833	11532.377232181874	46
0	36837	11533.625198605365	47
0	36839	11533.871978439939	48
0	36840	11534.090200558712	47
0	36844	11534.865821241737	48
0	36845	11535.652571910468	47
0	36848	11536.920219816302	46
0	36851	11538.126955851016	45
0	36855	11538.285707720331	46
0	36856	11539.332534975593	45
0	36860	11540.193422343275	46
0	36862	11540.640845852799	47
0	36863	11540.848296527972	46
0	36867	11541.804705853996	47
0	36868	11542.075019846519	46
0	36872	11542.389733759981	47
0	36873	11543.290243473125	46
0	36877	11544.519753528584	47
0	36878	11545.149368282442	46
0	36882	11545.608932390703	47
0	36883	11547.041399695386	46
0	36887	11547.119939722994	47
0	36888	11548.680863885616	46
0	36892	11550.390456868998	47
0	36893	11550.399036998336	46
0	36896	11551.633916504715	45
0	36899	11553.281541707028	44
0	36903	11553.778868992599	45
0	36904	11554.503228399005	44
0	36907	11556.491640724089	43
0	36911	11557.213217821115	44
0	36913	11557.953943929692	45
0	36914	11558.462358913418	44
0	36918	11559.76954799072	45
0	36919	11560.299228479747	44
0	36923	11560.618525587867	45
0	36924	11561.786283440549	44
0	36928	11562.039227222599	45
0	36930	11563.188200173241	46
0	36932	11563.29241463147	47
0	36933	11563.646124881912	46
0	36937	11564.413079400584	47
0	36939	11564.642922519372	48
0	36940	11565.312667577561	47
0	36943	11566.926441569287	46
0	36947	11567.302314096607	47
0	36950	11568.191597513701	46
0	36954	11569.492837333245	47
0	36955	11569.637179409	46
0	36959	11570.463987365348	47
0	36960	11570.956217963281	46
0	36964	11571.084977753626	47
0	36966	11571.622662999926	48
0	36967	11572.335023035328	47
0	36970	11573.854877773519	46
0	36973	11575.303585680048	45
0	36977	11576.056270923551	46
0	36978	11576.581774257715	45
0	36982	11576.726399668313	46
0	36984	11577.471053650494	47
0	36986	11577.61972768765	48
0	36987	11577.808732923526	47
0	36991	11578.859598325407	48
0	36992	11579.632127520848	47
0	36996	11580.083514109853	48
0	36997	11581.291905476559	47
0	37000	11583.101053494249	46
0	37003	11584.753643996675	45
0	37006	11586.010382755507	44
0	37010	11586.06641856895	45
0	37012	11586.772584301604	46
0	37014	11587.598104517027	47
0	37015	11587.84527364954	46
0	37019	11588.104173079455	47
0	37020	11589.321307688799	46
0	37023	11591.198911565576	45
0	37027	11592.615574727893	46
0	37028	11592.809357473474	45
0	37031	11594.252002348784	44
0	37035	11595.340485290563	45
0	37036	11595.671117245812	44
0	37042	11597.371556303437	45
0	37043	11597.52905227508	44
0	37047	11598.61547657262	45
0	37048	11599.328537800755	44
0	37052	11600.272406264273	45
0	37053	11601.095155192386	44
0	37057	11601.860251776703	45
0	37059	11602.070442240496	46
0	37060	11602.748020635578	45
0	37063	11603.996781245652	44
0	37066	11605.498089737851	43
0	37070	11605.772324673014	44
0	37072	11607.135055588063	45
0	37073	11607.20659042805	44
0	37077	11607.95654356575	45
0	37079	11608.258122549023	46
0	37080	11608.579631844382	45
0	37084	11608.628604158613	46
0	37085	11609.80369164947	45
0	37089	11610.288528203657	46
0	37090	11611.552739479426	45
0	37094	11612.543018257715	46
0	37096	11612.639031665017	47
0	37097	11612.845696825009	46
0	37100	11614.638019091856	45
0	37103	11616.581224534322	44
0	37106	11618.337400334921	43
0	37110	11618.491444709594	44
0	37112	11619.182067931709	45
0	37113	11620.222690151107	44
0	37117	11620.555281712378	45
0	37118	11622.196482330967	44
0	37121	11623.933039516431	43
0	37125	11624.077277984903	44
0	37126	11625.32986123528	43
0	37129	11626.616659269702	42
0	37132	11628.213461929221	41
0	37135	11629.86689712986	40
0	37139	11630.686505325794	41
0	37140	11631.121168696169	40
0	37143	11633.047386780042	39
0	37146	11634.636387980018	38
0	37150	11635.316346906946	39
0	37151	11636.20106628969	38
0	37155	11637.526642585682	39
0	37156	11637.999559925344	38
0	37159	11639.953295776654	37
0	37163	11639.994576451421	38
0	37165	11641.373555705188	39
0	37166	11641.878239283185	38
0	37169	11643.130197163518	37
0	37173	11643.818202701745	38
0	37174	11644.372429585304	37
0	37177	11645.892498433251	36
0	37181	11645.892738542196	37
0	37183	11645.944798778033	38
0	37184	11647.31551325753	37
0	37187	11649.211920107376	36
0	37190	11650.412890883569	35
0	37194	11650.628929017886	36
0	37197	11651.630075180751	35
0	37200	11653.367428274301	34
0	37204	11653.398059768503	35
0	37206	11653.714872000508	36
0	37208	11654.215981761542	37
0	37209	11654.9074959705	36
0	37213	11655.404853346905	37
0	37214	11656.61164372809	36
0	37217	11658.144215028209	35
0	37221	11658.600462503009	36
0	37222	11659.393384073896	35
0	37225	11661.177062127402	34
0	37229	11661.901720228914	35
0	37230	11662.402742956614	34
0	37233	11664.098644073529	33
0	37237	11664.69753920598	34
0	37239	11665.171632302389	35
0	37240	11665.981328556536	34
0	37244	11666.270714504824	35
0	37246	11666.905059865409	36
0	37247	11667.918222040346	35
0	37251	11669.080939171006	36
0	37252	11669.604059431737	35
0	37256	11670.405537074785	36
0	37257	11671.260191642342	35
0	37261	11671.718253874575	36
0	37263	11671.788490696387	37
0	37264	11672.936255746743	36
0	37268	11674.026295937448	37
0	37269	11674.253039840831	36
0	37273	11675.378646662926	37
0	37274	11675.57493726354	36
0	37278	11676.019092931144	37
0	37279	11677.455639280788	36
0	37283	11677.77644610888	37
0	37284	11679.32552124191	36
0	37287	11681.139901946522	35
0	37291	11682.470505850807	36
0	37293	11682.915638823426	37
0	37294	11683.021803475767	36
0	37297	11684.599457205869	35
0	37300	11686.457330011241	34
0	37304	11687.603212097018	35
0	37305	11688.105529634319	34
0	37309	11688.593369463609	35
0	37311	11689.378223986057	36
0	37312	11689.661795152947	35
0	37316	11690.910295146656	36
0	37318	11691.509874124597	37
0	37319	11691.655626487955	36
0	37322	11692.93940715067	35
0	37326	11693.320698916314	36
0	37328	11694.173883689258	37
0	37329	11694.931132357045	36
0	37333	11694.975928194781	37
0	37335	11695.941301449648	38
0	37336	11696.541692004575	37
0	37339	11697.965696547775	36
0	37342	11699.859919116868	35
0	37346	11701.097814882543	36
0	37347	11701.434922602063	35
0	37351	11701.992420294975	36
0	37353	11702.173484496416	37
0	37354	11703.313156153483	36
0	37358	11704.56443055401	37
0	37359	11704.76367686562	36
0	37363	11705.308200634657	37
0	37364	11705.967637281527	36
0	37368	11707.486384554368	37
0	37369	11707.905937458609	36
0	37373	11708.149391438872	37
0	37374	11709.494087269191	36
0	37378	11710.132519356039	37
0	37379	11711.366476056945	36
0	37382	11712.905195165087	35
0	37386	11713.481836879185	36
0	37388	11714.372319017093	37
0	37389	11714.513670394604	36
0	37393	11715.995362017006	37
0	37394	11716.165550988574	36
0	37398	11717.070177050977	37
0	37399	11717.692124992829	36
0	37402	11719.406383042444	35
0	37406	11719.725723078934	36
0	37408	11720.097571501995	37
0	37409	11720.904137413424	36
0	37413	11722.018970614612	37
0	37414	11722.240662995574	36
0	37418	11722.336190221738	37
0	37419	11723.718011276831	36
0	37423	11724.105871754069	37
0	37425	11724.428063999841	38
0	37427	11724.625468160914	39
0	37429	11724.97168795727	40
0	37430	11725.287334421684	39
0	37434	11725.532725719669	40
0	37435	11727.080726476421	39
0	37439	11727.415423531262	40
0	37440	11728.322145208751	39
0	37444	11729.08542799076	40
0	37445	11729.907070836087	39
0	37449	11730.907316203084	40
0	37450	11731.775061114353	39
0	37454	11732.423605992205	40
0	37455	11733.3502524868	39
0	37459	11733.557559061356	40
0	37460	11735.290030839329	39
0	37464	11736.752642461419	40
0	37465	11737.12640160158	39
0	37469	11737.167151307264	40
0	37471	11737.502564594458	41
0	37472	11738.929861359705	40
0	37476	11740.101726329354	41
0	37477	11740.607237536308	40
0	37481	11741.005828850755	41
0	37482	11742.258281514641	40
0	37486	11743.183616433714	41
0	37487	11743.917269043658	40
0	37490	11745.2775094014	39
0	37493	11746.89581110574	38
0	37497	11747.592027287768	39
0	37499	11747.601353131263	40
0	37501	11747.885726559593	41
0	37502	11748.200666475516	40
0	37506	11749.141825588373	41
0	37507	11750.104322871227	40
0	37510	11751.641531881165	39
0	37513	11752.91268228538	38
0	37516	11754.842093604651	37
0	37520	11755.728233411657	38
0	37521	11756.787655658682	37
0	37524	11758.474042614398	36
0	37527	11759.752234360611	35
0	37530	11761.125058512425	34
0	37533	11762.714948701335	33
0	37537	11762.948320787543	34
0	37539	11764.066285278488	35
0	37541	11764.459739941888	36
0	37542	11764.610992126202	35
0	37545	11765.940730651689	34
0	37549	11766.235516731575	35
0	37551	11767.28507720858	36
0	37552	11767.390405445953	35
0	37556	11767.769535822493	36
0	37558	11768.553188060694	37
0	37559	11769.308891380799	36
0	37563	11770.490058282805	37
0	37564	11771.148395411332	36
0	37568	11771.767487365131	37
0	37569	11772.816256927547	36
0	37572	11774.423203226772	35
0	37576	11775.673780184439	36
0	37577	11775.797022504394	35
0	37580	11777.486731459607	34
0	37584	11777.871928926682	35
0	37585	11778.987422031198	34
0	37589	11779.142945386002	35
0	37590	11780.506310828995	34
0	37594	11781.483988420744	35
0	37595	11782.080040306818	34
0	37599	11782.219622009075	35
0	37600	11783.496808029559	34
0	37603	11785.424413824115	33
0	37607	11786.16065954617	34
0	37608	11786.858159297552	33
0	37612	11787.552143056797	34
0	37613	11788.630469874885	33
0	37617	11788.814374800661	34
0	37618	11790.194004313495	33
0	37622	11790.771611960337	34
0	37623	11792.123087277856	33
0	37626	11793.352136604149	32
0	37629	11794.732343004864	31
0	37632	11795.954608499479	30
0	37636	11796.982106663391	31
0	37638	11797.356287687344	32
0	37639	11797.458428965915	31
0	37643	11797.791155456382	32
0	37645	11798.015477949973	33
0	37647	11798.700382469928	34
0	37649	11798.916566725629	35
0	37650	11799.276215875555	34
0	37653	11800.723854553919	33
0	37657	11801.194329640763	34
0	37658	11802.197794473204	33
0	37662	11803.522355316148	34
0	37664	11803.69532652897	35
0	37666	11803.718349734775	36
0	37667	11803.731601475957	35
0	37671	11803.75655842326	36
0	37673	11804.585176309278	37
0	37674	11805.690131434272	36
0	37677	11807.306498787026	35
0	37681	11808.548752726499	36
0	37682	11808.890826761196	35
0	37686	11810.756286876056	36
0	37687	11810.823574554394	35
0	37690	11812.184152749586	34
0	37694	11814.037291493524	35
0	37695	11814.049099162254	34
0	37699	11814.286262723749	35
0	37701	11814.934413290462	36
0	37703	11815.689583649777	37
0	37704	11815.760210833173	36
0	37707	11817.183778781477	35
0	37711	11817.921098779321	36
0	37713	11818.158412612674	37
0	37714	11818.513282280821	36
0	37718	11819.774335207332	37
0	37719	11820.123777675476	36
0	37723	11820.566978244435	37
0	37725	11820.801685196388	38
0	37726	11821.606439209577	37
0	37730	11822.580777830225	38
0	37732	11823.508800877395	39
0	37733	11823.525353654508	38
0	37739	11823.857570051195	39
0	37741	11824.913098506615	40
0	37742	11825.332607448135	39
0	37746	11825.680503346767	40
0	37747	11826.805385696922	39
0	37751	11826.91333317715	40
0	37753	11827.100295717264	41
0	37754	11828.736499096487	40
0	37758	11828.768322787191	41
0	37759	11830.014312584173	40
0	37763	11830.038535395178	41
0	37764	11831.221243403699	40
0	37768	11832.614712848804	41
0	37769	11832.943365041572	40
0	37773	11833.062816027711	41
0	37774	11834.393682323429	40
0	37778	11835.541957652588	41
0	37779	11835.604545441861	40
0	37782	11837.238550267587	39
0	37786	11837.609085434867	40
0	37788	11837.863210491024	41
0	37789	11838.647576384465	40
0	37793	11838.742191371382	41
0	37795	11839.617493514498	42
0	37796	11840.575064922715	41
0	37799	11842.371719144317	40
0	37803	11842.664410922136	41
0	37804	11843.957916304688	40
0	37808	11843.973370185119	41
0	37809	11845.264745887215	40
0	37813	11845.952260543572	41
0	37814	11846.58369818985	40
0	37817	11847.786927455883	39
0	37821	11848.34199073021	40
0	37823	11848.921320786434	41
0	37825	11849.662747002223	42
0	37826	11849.786055645752	41
0	37830	11850.10828565897	42
0	37832	11851.091454738105	43
0	37833	11851.311921985294	42
0	37837	11852.502159675488	43
0	37839	11852.603527622463	44
0	37840	11853.10605224039	43
0	37844	11853.561927716524	44
0	37845	11854.515609586272	43
0	37849	11854.75519873214	44
0	37850	11856.062189260158	43
0	37854	11856.494946642178	44
0	37855	11857.861601294051	43
0	37859	11858.825615582292	44
0	37860	11859.531577171418	43
0	37863	11860.854651982742	42
0	37867	11861.516007741625	43
0	37868	11862.204776106807	42
0	37872	11862.206724351058	43
0	37873	11863.997710493239	42
0	37877	11864.553456862231	43
0	37878	11865.753397206435	42
0	37882	11865.966891575376	43
0	37883	11867.562529715555	42
0	37886	11869.138030656459	41
0	37890	11869.514661219039	42
0	37892	11870.375067245481	43
0	37893	11871.046536152842	42
0	37896	11872.670105284298	41
0	37900	11873.627969840787	42
0	37901	11873.967788904378	41
0	37905	11874.174636480328	42
0	37906	11875.782197359422	41
0	37910	11877.233351575594	42
0	37911	11877.371208841944	41
0	37914	11878.910158879155	40
0	37918	11879.443993264918	41
0	37920	11879.751420497275	42
0	37921	11880.591599482329	41
0	37924	11881.800776515001	40
0	37930	11883.032032484405	41
0	37931	11883.405302547136	40
0	37935	11883.517324612981	41
0	37937	11883.541541768008	42
0	37938	11885.197716223294	41
0	37941	11886.913197875986	40
0	37944	11888.796597063387	39
0	37947	11890.372381747173	38
0	37951	11891.044805260271	39
0	37953	11891.164673359169	40
0	37955	11891.630430877508	41
0	37956	11892.054381126756	40
0	37960	11892.355178393403	41
0	37962	11893.169440766602	42
0	37963	11893.92173199396	41
0	37966	11895.165848828139	40
0	37970	11896.458538320422	41
0	37971	11896.634538880768	40
0	37975	11896.892706221006	41
0	37976	11897.944493689979	40
0	37979	11899.922974130357	39
0	37982	11901.340786594557	38
0	37986	11901.679761857965	39
0	37987	11903.323565663243	38
0	37991	11903.584797165542	39
0	37993	11904.117032642393	40
0	37994	11905.130436238306	39
0	37997	11907.019384518111	38
0	38001	11907.110628650065	39
0	38002	11908.68718992419	38
0	38006	11909.008558029665	39
0	38007	11910.227039657565	38
0	38010	11911.98747549619	37
0	38014	11912.29981941338	38
0	38015	11913.230684403921	37
0	38018	11915.028021116028	36
0	38021	11916.70715731013	35
0	38025	11917.050833702534	36
0	38027	11918.293960499816	37
0	38028	11918.324240290591	36
0	38031	11919.965403619067	35
0	38034	11921.482762514272	34
0	38038	11922.40475153166	35
0	38040	11922.617322916953	36
0	38041	11922.803145787896	35
0	38044	11924.710968476937	34
0	38047	11926.57228755656	33
0	38051	11927.478504316952	34
0	38052	11927.839665563436	33
0	38056	11928.524570872796	34
0	38058	11929.447573986328	35
0	38059	11929.473863387512	34
0	38063	11930.01725108411	35
0	38065	11930.630957783953	36
0	38066	11930.788746297205	35
0	38070	11932.265214885613	36
0	38071	11932.444049487481	35
0	38075	11932.464314305461	36
0	38077	11933.231705368507	37
0	38078	11934.140807497719	36
0	38082	11934.778301517236	37
0	38084	11935.510435456495	38
0	38086	11935.78957367218	39
0	38087	11936.054256559008	38
0	38091	11936.478425215409	39
0	38092	11938.027871241079	38
0	38095	11939.506968585433	37
0	38099	11939.831345443137	38
0	38102	11940.961472308853	37
0	38106	11941.693109227259	38
0	38107	11942.839885649489	37
0	38110	11944.143422362426	36
0	38114	11945.228798554604	37
0	38115	11945.48067076228	36
0	38118	11947.071807352858	35
0	38122	11947.516913347406	36
0	38123	11948.908868020246	35
0	38126	11950.360410207169	34
0	38130	11951.594652739675	35
0	38132	11951.908623251244	36
0	38134	11952.210354898826	37
0	38135	11952.345716711165	36
0	38139	11953.07214858758	37
0	38140	11954.048967527816	36
0	38144	11955.374317424528	37
0	38145	11955.733209884385	36
0	38148	11957.527199084903	35
0	38152	11958.505443688752	36
0	38153	11958.86345633551	35
0	38157	11959.038603659497	36
0	38158	11960.761267470787	35
0	38162	11961.189565541985	36
0	38164	11961.374403462976	37
0	38168	11962.058394241383	38
0	38169	11962.102712854403	37
0	38173	11962.512463989759	38
0	38174	11963.929263133216	37
0	38178	11964.921041473765	38
0	38179	11965.666276876289	37
0	38183	11966.223969030933	38
0	38184	11967.34421904258	37
0	38187	11968.927907937798	36
0	38191	11969.285771734092	37
0	38193	11969.736500467473	38
0	38194	11970.613969555716	37
0	38198	11971.243458605651	38
0	38199	11972.090890934723	37
0	38202	11973.823582087676	36
0	38205	11975.621112934533	35
0	38209	11976.604286740397	36
0	38211	11976.664332033528	37
0	38213	11977.332302444743	38
0	38214	11977.367276611398	37
0	38218	11978.136245441868	38
0	38219	11978.853520467724	37
0	38222	11980.651188651878	36
0	38225	11982.032201715033	35
0	38229	11982.317804290292	36
0	38231	11982.742593117577	37
0	38233	11983.845572172315	38
0	38234	11983.962670011106	37
0	38238	11984.196129735754	38
0	38240	11984.96841333033	39
0	38241	11985.842852282743	38
0	38245	11986.620037066734	39
0	38246	11987.129339528675	38
0	38250	11987.211333486725	39
0	38251	11988.869918746347	38
0	38255	11989.564673331647	39
0	38256	11990.65691428523	38
0	38260	11991.603385371789	39
0	38261	11992.603707914645	38
0	38265	11993.419612311588	39
0	38266	11994.027559059145	38
0	38269	11995.337135958703	37
0	38273	11995.466754608977	38
0	38274	11996.901084812017	37
0	38278	11997.139364110062	38
0	38279	11998.520988137865	37
0	38282	12000.188174294898	36
0	38286	12000.514423770679	37
0	38287	12001.617661768043	36
0	38291	12002.013946055298	37
0	38292	12003.1583234588	36
0	38296	12003.901738741307	37
0	38297	12004.572411948288	36
0	38300	12006.005193597296	35
0	38304	12006.159105992836	36
0	38305	12007.510778219284	35
0	38309	12007.610960341203	36
0	38310	12009.419835951024	35
0	38314	12009.61636377491	36
0	38315	12010.9756325994	35
0	38319	12011.822902319097	36
0	38320	12012.322261649774	35
0	38326	12014.012133002935	36
0	38327	12014.232047129826	35
0	38330	12015.5627496878	34
0	38334	12015.686385678088	35
0	38335	12016.896317106703	34
0	38339	12017.001778168583	35
0	38340	12018.678773718359	34
0	38344	12018.799946663516	35
0	38346	12018.857792507629	36
0	38347	12020.669163065249	35
0	38351	12020.979605351323	36
0	38354	12022.45239277746	35
0	38358	12022.899872790547	36
0	38360	12023.000874946041	37
0	38361	12023.983392678233	36
0	38364	12025.25459923766	35
0	38367	12027.111343893254	34
0	38371	12027.586745703559	35
0	38372	12028.33436422258	34
0	38376	12028.437465588033	35
0	38377	12029.54678283579	34
0	38381	12030.165133358964	35
0	38383	12030.21616024642	36
0	38384	12031.538171600209	35
0	38388	12031.877139856907	36
0	38390	12032.868546672449	37
0	38391	12033.361552405016	36
0	38394	12034.568012156927	35
0	38398	12035.339148417783	36
0	38399	12036.026413913661	35
0	38403	12036.32885555082	36
0	38404	12037.876753475921	35
0	38408	12038.910185271736	36
0	38409	12039.652533805029	35
0	38413	12039.932431221203	36
0	38415	12040.920202329659	37
0	38416	12041.119051719116	36
0	38419	12042.59566698003	35
0	38423	12043.403402057293	36
0	38425	12043.694328431915	37
0	38426	12044.015399467045	36
0	38430	12044.015687974916	37
0	38431	12045.574288223901	36
0	38434	12047.011254185097	35
0	38437	12048.228453095289	34
0	38441	12048.669954848536	35
0	38443	12049.46394623304	36
0	38445	12049.677324402349	37
0	38446	12049.756254283371	36
0	38449	12050.981931457514	35
0	38452	12052.203082471745	34
0	38455	12053.719164068097	33
0	38458	12055.284157797353	32
0	38461	12056.916909064943	31
0	38465	12057.605126387213	32
0	38467	12058.391305662391	33
0	38468	12058.521536633218	32
0	38471	12060.464364882218	31
0	38475	12062.128407949587	32
0	38476	12062.417383448439	31
0	38480	12062.537870572558	32
0	38482	12063.311927621055	33
0	38483	12063.997306977431	32
0	38487	12064.299044251121	33
0	38488	12065.548876448753	32
0	38492	12065.868347772569	33
0	38494	12065.961504545511	34
0	38496	12066.33127520635	35
0	38497	12067.093155811201	34
0	38501	12067.435824331463	35
0	38502	12068.674995236318	34
0	38505	12069.900171425972	33
0	38509	12070.743513186455	34
0	38511	12071.041179713864	35
0	38513	12071.528181395297	36
0	38514	12071.664196993444	35
0	38517	12073.053409028087	34
[...]
6	83886	26235.733552098861	3.354086437561
6	83889	26237.576322085625	19.411161749967
6	83904	26241.798025444923	10.425198300174
6	83917	26246.156179344869	29.9615951708
6	83929	26249.54758330009	24.761343459987
6	83985	26265.65650214593	15.388156492118
6	84033	26278.653460215992	6.319875375099
6	84058	26290.763188937148	1.69006797187
6	84066	26293.838449936015	13.350636102068
6	84114	26309.437496256111	13.322220721633
6	84127	26314.113189096218	23.232396453415
6	84180	26327.767241393058	30.540265822948
6	84189	26329.456969765788	1.68972837273
6	84199	26332.606982871359	7.662429303766
6	84206	26334.423618665179	3.528992896405
6	84236	26344.438322196183	1.715078900568
6	84274	26358.036587611053	12.438913754261
6	84289	26362.946580081646	5.000480205687
6	84294	26364.544018804495	4.969616992573
6	84299	26366.459498535123	6.134946256419
6	84313	26372.735681411836	17.804939594089
6	84320	26374.267471185911	2.931680025874
6	84360	26387.284222604734	13.606501868287
6	84396	26399.315791302387	8.688462619972
6	84455	26416.907196543392	1.4027860092
6	84466	26421.160310889993	1.450629309937
6	84485	26426.654933265809	1.838267913088
6	84516	26436.442368540006	1.610188180208
6	84519	26438.082264345723	5.771467126615
6	84546	26446.348014408375	6.776505325254
6	84667	26480.327008055734	8.955311472381
6	84685	26486.88648840117	23.853978767131
6	84688	26488.31980471539	1.43331631422
6	84759	26508.792481861847	4.629220958284
6	84764	26510.640983702826	49.476312671796
6	84788	26516.9917341918	17.867447981419
6	84798	26519.495872780333	16.141717862737
6	84810	26522.326834813344	7.26127554316
6	84815	26523.643107926312	18.128501335673
6	84894	26548.099458248379	4.577266244248
6	84897	26549.798562892923	7.659245803481
6	84961	26569.433180531325	16.21750349586
6	84985	26578.062745457726	12.902218867388
6	85131	26616.298510621699	3.354155577625
6	85188	26635.177686282273	35.532334744382
6	85193	26636.567193362515	7.182978039717
6	85198	26637.99117770924	54.643009724732
6	85248	26653.182940400046	1.32597520221
6	85315	26676.510229063619	1.2977251729
6	85325	26679.556923333022	12.143222053466
6	85330	26681.223435422245	7.035976381873
6	85366	26694.597692098867	9.197255806069
6	85380	26697.686114323538	9.340087953611
6	85399	26702.518374299285	26.244243205794
6	85437	26715.447707189833	6.62939855802
6	85449	26719.351099723418	8.79502669789
6	85454	26720.878662134734	36.978152477463
6	85464	26724.060594090474	51.246735851541
6	85484	26730.195240680155	5.764429490604
6	85527	26745.248202905459	11.751997848292
6	85535	26748.866421472867	15.137457262745
6	85560	26757.573474926342	14.14055297614
6	85577	26761.854508033981	22.105476135232
6	85583	26764.462739469138	1.337591860816
6	85586	26765.99806649371	4.013420473743
6	85629	26777.616202804473	35.251384081256
6	85652	26785.307451385472	8.603614336231
6	85672	26791.390039571959	1.630588769913
6	85701	26798.311023279118	19.434980028228
6	85730	26808.238786087397	1.38833995983
6	85808	26829.973119833906	15.98380667851
6	85836	26840.105232121451	28.653647192883
6	85842	26843.061188283032	56.333648810959
6	85847	26844.702515868684	5.205799523216
6	85863	26850.956454961402	1.51333594881
6	85868	26852.835217743953	22.581623746613
6	85873	26854.602481668097	1.767263924144
6	85881	26857.923145402809	18.44551520809
6	85893	26860.842846051258	10.876350044321
6	85896	26862.50726996309	8.995045475644
6	85899	26864.379968124655	10.833433744051
6	85902	26865.861175188263	12.78433752897
6	86022	26899.965405645248	8.054636809497
6	86070	26915.661259748442	15.330180527579
6	86080	26919.187314197449	1.92404902596
6	86095	26923.488138159951	6.375466685515
6	86098	26925.271228151237	12.3825123638
6	86111	26929.99023431803	3.569740467621
6	86116	26931.936537381847	4.208631962017
6	86134	26937.778938927528	2.933002421697
6	86163	26945.612011013206	9.148122537531
6	86166	26947.022175748859	28.528652355835
6	86174	26949.516595514704	15.100128020998
6	86191	26955.126538546597	27.720945238637
6	86243	26971.544839888467	1.843278863095
6	86266	26979.76637058354	1.843694708683
6	86273	26981.172691587573	5.928754389784
6	86303	26990.671592974131	3.319074718395
6	86339	27000.134723344844	12.469636494637
6	86352	27005.075545437474	1.599089523777
6	86385	27017.607453570169	3.804058123015
6	86405	27023.89214151616	8.404839423766
6	86426	27031.14091266955	9.288105794186
6	86505	27050.371833380711	1.392568084225
6	86510	27052.3027426841	7.236880685517
6	86591	27075.890512331228	23.78992176915
6	86604	27080.473590416114	13.485124451223
6	86639	27090.822848642457	12.261039390807
6	86649	27093.997672885682	7.025027810529
6	86689	27107.744003429289	8.143572227132
6	86741	27121.58875238991	15.180520051212
6	86761	27127.411689847174	3.172094964129
6	86796	27138.263887086908	5.758081778788
6	86811	27143.592924859213	5.085106832505
6	86824	27147.651430034476	22.410135586517
6	86879	27161.102779173503	6.736369286008
6	86911	27170.423182539107	14.946459151543
6	86926	27174.693627384515	24.569487573169
6	86931	27176.449450354674	10.260010398583
6	86937	27180.276305236505	8.1480410053
6	86945	27183.711239936785	13.250479365677
6	86956	27188.167308634171	17.068135994895
6	86966	27191.306251074212	1.284345252626
6	86987	27199.069208798582	4.452182265896
6	87033	27212.998096615101	18.053422392633
6	87036	27214.393561852562	12.612870701417
6	87058	27221.825549726213	11.11640304628
6	87095	27232.965350182566	9.869021939584
6	87105	27236.218050000842	1.764826478623
6	87108	27237.548236232649	11.691496187599
6	87182	27259.156212531614	10.888273412768
6	87217	27268.635273036199	21.475678933084
6	87232	27272.889623303736	13.130294053922
6	87242	27276.338537619288	83.049944610165
6	87306	27295.149165693509	1.571951304376
6	87315	27296.964969228605	11.052728232729
6	87318	27298.30966772067	1.344698492065
6	87330	27301.142468934531	1.45900981538
6	87338	27303.855794204424	16.450809869027
6	87343	27305.833120714712	10.013444694498
6	87349	27308.937822056028	1.368588548899
6	87354	27310.427218683275	120.73171970725
6	87377	27318.200280241319	12.286926060872
6	87382	27319.584503076808	30.158329046851
6	87391	27324.810783887492	9.846318628245
6	87430	27335.72908230296	5.758558737168
6	87445	27340.814976004163	44.339943002136
6	87462	27346.033604128497	7.267664855359
6	87465	27347.34202015123	1.308416022733
6	87481	27354.130949411193	7.22391810065
6	87530	27368.646381594638	5.04150602137
6	87651	27405.994826941217	15.727298852467
6	87675	27412.625566936681	1.482465605251
6	87700	27420.059898807318	55.118562861401
6	87730	27428.744966682256	7.722437985379
6	87761	27436.445478741103	1.356359202974
6	87779	27443.247006527916	5.483256461584
6	87782	27444.731525870249	1.484519342333
6	87798	27451.512916275881	57.385561339328
6	87828	27460.345677261449	11.860927540362
6	87833	27462.345564388506	8.132200453036
6	87848	27467.371511591248	15.919752754181
6	87946	27494.883664968073	6.452458573017
6	87973	27503.240654551447	6.308681848008
6	88001	27512.736713457689	35.816892850048
6	88110	27542.792057443619	3.349683986646
6	88113	27544.475963531085	9.827765034397
6	88227	27575.150676969836	3.85671181198
6	88247	27581.277892079974	1.777194345742
6	88328	27605.798462933885	13.279924848353
6	88331	27607.370987172822	45.290166624881
6	88341	27610.420439817967	20.980509978285
6	88378	27621.78381075638	9.910297880419
6	88388	27624.366935709889	19.405971997785
6	88409	27633.100804686385	1.774457340501
6	88511	27663.158459021921	20.18121674363
6	88514	27665.063398078109	1.904939056188
6	88557	27679.867217752548	3.349420004676
6	88572	27684.58569616119	4.442078665226
6	88581	27685.809857252637	12.238383024875
6	88604	27693.898727604027	1.943927920796
6	88624	27700.111194460864	29.49410349323
6	88645	27707.414155486437	3.56952229275
6	88657	27710.946476533475	13.331184404607
6	88742	27734.488799656022	12.658321279025
6	88762	27741.005049240615	7.04632316052
6	88796	27750.280175749798	5.729871411593
6	88804	27753.517412422624	13.312364555386
6	88815	27758.476384279158	10.091896947
6	88849	27767.712491489601	1.872423003428
6	88871	27773.690359494117	12.308389435918
6	88877	27776.521302442652	1.208022878319
6	88945	27795.747020030792	14.78699546116
6	88948	27797.688702534164	23.417895030652
6	88979	27809.530767205195	20.668216539697
6	88991	27812.58278141974	8.51890258119
6	89046	27830.845754318708	5.973274833276
6	89049	27832.767286745296	24.977582217611
6	89072	27841.300437382446	16.634522699566
6	89111	27855.427835803688	11.841006307177
6	89138	27863.381020827427	25.879858634507
6	89163	27871.112111427843	22.760262091929
6	89176	27872.664006174191	1.551894746348
6	89190	27875.594492702208	25.562033010071
6	89195	27876.903788957394	25.553101303727
6	89200	27878.345087723083	11.810355830117
6	89228	27888.031051958561	1.228925239295
6	89237	27889.569739280105	6.179137712621
6	89266	27898.243789628544	5.170389817161
6	89339	27919.224855696433	5.287685459925
6	89349	27922.899304802366	10.565086495561
6	89362	27926.98399936764	22.073823921056
6	89369	27928.511828581639	50.032547001134
6	89372	27930.394740928918	1.882912347279
6	89394	27940.150540481343	27.451066518194
6	89474	27960.779299676813	1.835267131031
6	89477	27962.093628808133	4.427330257357
6	89509	27970.866492878295	20.469200572762
6	89516	27972.712407434009	1.845914555714
6	89529	27977.247880702674	1.445736282691
6	89534	27979.166983757563	1.919103054889
6	89554	27985.75447584635	67.582881037859
6	89557	27987.43491807042	12.029855250942
6	89575	27993.673047983668	1.744966472499
6	89615	28006.850737451599	7.651052432462
6	89620	28008.497529956908	46.011225225602
6	89655	28019.970531476126	70.392552913543
6	89669	28023.558125579008	10.437141050107
6	89689	28030.516776401759	8.282028320906
6	89722	28042.459722650448	6.75042836755
6	89786	28058.906632041396	8.960241231042
6	89791	28060.395005190396	18.555072704399
6	89794	28061.863158068643	8.181425399964
6	89797	28063.171353425481	3.450233646601
6	89807	28066.389908443414	1.690448440239
6	89812	28068.050295282178	33.853458152563
6	89815	28069.286177649744	32.623692395599
6	89887	28091.630613539205	1.805607974529
6	89894	28093.428605963872	1.797992424667
6	89897	28095.274499331811	1.845893367939
6	89909	28098.457722207368	7.081927867491
6	89919	28101.63074829767	11.122100974142
6	90017	28130.061348999315	14.897498802879
6	90044	28138.144881712483	17.295073752712
6	90052	28140.751598160738	1.270236301236
6	90057	28142.603557391861	18.937413632848
6	90085	28152.724827410118	3.801993913033
6	90108	28160.791902180039	9.350230125351
6	90148	28173.322194616707	8.712738520008
6	90155	28175.102265861468	24.542316417711
6	90168	28180.191770273285	1.874824873358
6	90223	28195.098169304081	7.921032833381
6	90228	28196.611806397722	4.078515033172
6	90236	28199.769892327324	10.787786145398
6	90239	28201.697306552925	9.907452394131
6	90251	28204.758729536109	1.797969876602
6	90262	28209.690035631903	4.815630174862
6	90362	28240.229333491833	8.53900860394
6	90371	28242.184215195687	1.954881703854
6	90387	28248.491237330833	2.760658623922
6	90497	28280.322908341348	1.593401040696
6	90507	28283.882478131563	16.218847945289
6	90553	28297.156450877547	1.571519134939
6	90566	28301.466341903642	18.547097464577
6	90579	28306.245714297355	4.725538208565
6	90589	28309.520125984424	15.177926968822
6	90615	28320.02419539562	45.556716816082
6	90622	28321.622333462374	26.186205390275
6	90635	28325.414347952442	1.369256821461
6	90645	28328.658483044828	5.78063990447
6	90726	28353.183804949026	3.452475797181
6	90755	28361.786351879339	1.849804478139
6	90771	28367.621550961237	29.923635770291
6	90790	28372.346328955914	42.345963194417
6	90857	28394.546499983062	14.705265461418
6	90867	28397.572935413038	15.712048122954
6	90886	28401.766415011538	13.161733555514
6	90944	28421.438501790567	4.279784658874
6	91015	28444.51218528769	8.241722876086
6	91058	28459.498381225978	21.904920032516
6	91075	28464.745958079424	1.955322649516
6	91136	28482.607480827001	9.717419655763
6	91173	28493.354126883326	8.181342548495
6	91179	28496.504125279589	1.881897136942
6	91182	28497.821688954188	21.98829424183
6	91215	28505.257644333346	3.920556284933
6	91288	28530.655682574241	7.581193469468
6	91384	28559.016291834817	3.401535155872
6	91414	28568.616769045807	1.94368989747
6	91424	28571.795500153519	12.123574910153
6	91432	28575.184936904751	22.92117009581
6	91455	28582.958339788235	13.570972663757
6	91470	28588.425235221564	1.634712971561
6	91482	28590.937404010288	4.852053096479
6	91492	28594.567560114554	4.397128830523
6	91505	28598.793466295145	8.937818498446
6	91518	28604.139471976303	59.766938586027
6	91523	28605.49639148622	13.362115098886
6	91592	28628.739533621476	7.841523935623
6	91687	28655.366424193636	6.731399478986
6	91702	28659.466946608975	47.732278814209
6	91778	28681.308230567938	1.785212072544
6	91817	28693.76636834166	24.456009981732
6	91840	28701.508001203677	7.569850925144
6	91876	28711.812899624956	4.120513627902
6	91919	28727.108827111525	8.272733350845
6	91950	28737.424691586968	10.831780330948
6	91980	28743.99714720494	17.746432072435
6	91993	28749.170561687489	3.27159134354
6	92025	28759.446490971958	4.229403019345
6	92118	28786.834303564606	4.287751338932
6	92143	28794.064451092136	2.728111932497
6	92155	28797.151267999624	22.357759374719
6	92189	28806.451329845031	17.119936778279
6	92211	28813.080994157148	8.507675411776
6	92219	28816.104850425226	27.546686255003
6	92222	28817.782016100203	1.677165674977
6	92251	28828.610811100182	8.53675378427
6	92330	28851.374673822734	3.374457225854
6	92335	28853.237865872707	1.863192049973
6	92392	28869.169592353169	7.789996995684
6	92423	28876.930308310156	19.038361116887
6	92441	28882.599030459699	10.804197413816
6	92453	28885.92840391456	12.329715992729
6	92456	28887.481367773962	11.380478099868
6	92476	28894.071236120936	46.521056200903
6	92535	28914.968523600351	8.414809030568
6	92545	28918.282261917393	1.353453750722
6	92565	28924.79719348571	6.778745942915
6	92572	28926.249942623477	1.452749137767
6	92599	28933.669655904199	14.530047934017
6	92602	28935.477136445443	45.965509901767
6	92624	28941.98867316025	3.520794860402
6	92627	28943.189759234736	5.065789800197
6	92668	28954.81855675506	1.686395022087
6	92693	28963.088161561847	1.906224960461
6	92698	28964.669364101276	23.562084730669
6	92703	28966.46808486341	16.992913816256
6	92735	28975.634278007992	13.942142501308
6	92788	28993.745928559661	20.532847654713
6	92798	28996.998258604131	15.008180333181
6	92808	28999.878864606119	1.212273620255
6	92845	29011.813294720113	1.326776015386
6	92859	29018.937451449617	19.155215559263
6	92871	29022.364159512169	1.743008600362
6	92879	29025.216184435434	21.138178702372
6	92915	29035.314633666	1.771739736199
6	92940	29043.706413711628	3.453709711454
6	92947	29045.373915872557	13.791249821733
6	93001	29061.36847906543	3.129084718698
6	93018	29066.379629771617	1.932587805949
6	93021	29067.922040961888	19.715690653489
6	93047	29074.166480608675	21.782309916896
6	93050	29076.078884415347	1.912403806672
6	93080	29086.600460217726	7.089111473872
6	93091	29091.367328605634	1.874827488512
6	93108	29096.247340582144	12.284817530043
6	93116	29099.39315168785	24.621142300726
6	93135	29103.665854243022	17.016115478023
6	93162	29111.529412281346	13.964033480697
6	93172	29114.455329131354	6.638109110931
6	93223	29130.664519137721	30.961013296186
6	93248	29139.59638992233	4.522715028617
6	93324	29162.203851003591	10.851650043056
6	93348	29168.620371919144	1.757265067846
6	93353	29170.498881774601	10.918377850169
6	93453	29201.485539936664	15.323326241217
6	93583	29233.9400361553	30.246521753874
6	93633	29249.281293128633	13.775904988909
6	93675	29262.769350658373	12.729996701731
6	93701	29273.308437508547	7.302118968554
6	93704	29274.968908549861	18.378702388552
6	93745	29287.051865633592	89.604173141169
6	93752	29288.507063094169	4.925302642314
6	93785	29299.734807075016	1.512857814506
6	93788	29301.654851640776	1.92004456576
6	93847	29318.728429659843	13.869537168867
6	93853	29321.680092498302	4.912764036745
6	93860	29323.608149933643	8.593643450443
6	93863	29324.948173845574	1.340023911931
6	93866	29326.561811168693	1.613637323119
6	93871	29327.947852342404	1.386041173711
6	93878	29329.61279384756	19.590733130509
6	93932	29345.379089243723	24.917783547337
6	93945	29350.086843656761	38.859983215765
6	94023	29376.200360228135	2.918960763859
6	94049	29385.693094655513	27.809107671653
6	94099	29398.479556418598	18.433523764453
6	94142	29412.047322738558	10.5726819115
6	94170	29421.380727420018	29.734630049782
6	94244	29444.600086713598	91.431644095006
6	94274	29454.975913928651	14.484664248175
6	94288	29458.702682124839	13.468061544229
6	94304	29464.384750222803	10.926707640881
6	94320	29467.09411131704	28.034809428476
6	94328	29470.192171465809	1.412179620937
6	94331	29471.760429122689	8.349131660162
6	94346	29476.359681494924	19.602387322808
6	94361	29481.115007065813	1.380535742454
6	94443	29504.212055380847	13.770511381334
6	94461	29511.228147518654	11.388950803504
6	94501	29524.291645157543	8.537664602167
6	94597	29552.186311670226	1.483159259334
6	94624	29559.870853208584	1.505774187483
6	94662	29571.989212507776	1.446044628695
6	94665	29573.25183520282	5.685364164107
6	94668	29574.836400392487	28.234527110459
6	94676	29578.663153455987	5.623626304257
6	94706	29588.829348381072	11.559282630302
6	94733	29595.902658109761	36.824130088135
6	94765	29605.404026729635	7.617997513952
6	94778	29610.464302941061	3.932171586293
6	94827	29624.972336476318	4.996327584499
6	94830	29626.188737232819	2.942481640184
6	94833	29627.824300637491	1.635563404672
6	94836	29629.18514443396	20.339049495335
6	94842	29631.978764238603	15.462236258156
6	94857	29636.509916097879	9.992878209668
6	94867	29639.234675763942	14.041617319749
6	94940	29662.451383240356	10.424437874507
6	94955	29667.611085670834	5.460973156682
6	94982	29675.743198770677	15.008435795294
6	95026	29688.64739635328	13.918663913077
6	95051	29696.629146017155	8.688450697647
6	95160	29730.389012931121	11.506763130657
6	95163	29732.200634230507	34.433596819067
6	95207	29748.53313814981	9.552167842889
6	95292	29772.218815299702	7.379420247651
6	95295	29773.652248569784	26.965435808807
6	95332	29785.063174309229	37.733083928101
6	95395	29805.684081306887	28.750880114096
6	95407	29809.270534830932	1.995697660744
6	95417	29812.884004885723	12.329289115249
6	95425	29815.392078919914	25.221470137489
6	95442	29820.086348432321	9.582478015286
6	95472	29829.463157017735	8.244820934844
6	95475	29830.880299193246	62.736005363958
6	95521	29847.14204920197	1.703452316672
6	95548	29855.410550769624	24.718593184852
6	95562	29857.983562255298	4.521198949112
6	95577	29862.452434165237	9.4332419463
6	95608	29870.388563554568	6.295166775835
6	95621	29874.955618333465	7.964098971936
6	95624	29876.760290175697	14.223347711251
6	95696	29898.255255341737	8.849660653968
6	95699	29899.553264967932	3.024247914523
6	95707	29902.355322404785	51.59714974783
6	95729	29909.160568213484	13.186044664235
6	95761	29918.850100210702	35.496775643601
6	95779	29925.691238446182	1.78166810479
6	95819	29939.177232827266	1.589954545349
6	95898	29961.876555659084	8.442520802649
6	95939	29974.095323538428	3.52865148439
6	95967	29984.350471221862	3.340816340218
6	95982	29989.072990840694	1.807544142939
6	95999	29993.523622080704	6.583397862869
6	96007	29995.998451829908	5.961035856082
7	44171	13878.750879872266	1
7	44177	13881.482781907219	2
7	44182	13883.196815287556	3
7	44189	13886.699518859338	2
7	44192	13886.819806465927	3
7	44194	13887.899619203191	2
7	44196	13888.281255382237	1
7	44202	13889.798406937022	2
7	44204	13890.017950603682	1
7	44206	13891.208357595416	0
7	44209	13891.276183782194	1
7	44211	13892.261402759805	0
7	44219	13894.252362552706	1
7	44227	13897.980508405858	0
7	44232	13898.901228159155	1
7	44241	13901.440122254138	0
7	44248	13902.348185692589	1
7	44270	13909.895208790794	0
8	44214	13892.850033168543	13495.623174773
8	44225	13897.085737002316	13464.345880721
9	44214	13892.850033168543	1.573849386349
9	44225	13897.085737002316	1.527919839136

