version 2
run Third_exit_5-6-20191114-11:42:55-9012
attr configname Third_exit_5
attr datetime 20191114-11:42:55
attr experiment Third_exit_5
attr inifile omnetpp.ini
attr iterationvars ""
attr iterationvarsf ""
attr measurement ""
attr network ResponseTimeNetwork
attr processid 9012
attr repetition 6
attr replication #6
attr resultdir results
attr runnumber 6
attr seedset 6
param **.Source.interArrivalTime exponential(6s)
param **.jobPriority bernoulli(0.8)
param **.PS.serviceTimeU1 "uniform(1.2s, 2.0s)"
param **.PS.serviceTimeU2 "uniform(2.4s, 2.8s)"
param **.SS1.serviceTime exponential(1.4s)
param **.SS2.serviceTime exponential(2s)
param **.PS.exitProbability bernoulli(0.5)

vector 0 ResponseTimeNetwork.QueueU2 queueLength:vector ETV
attr interpolationmode sample-hold
attr title "queue length, vector"
vector 1 ResponseTimeNetwork.QueueU1 queueLength:vector ETV
attr interpolationmode sample-hold
attr title "queue length, vector"
vector 2 ResponseTimeNetwork.sink lifeTimeU1:vector ETV
attr interpolationmode none
attr title "lifetime of arrived jobs U1, vector"
attr unit s
vector 3 ResponseTimeNetwork.sink totalServiceTimeU1:vector ETV
attr interpolationmode none
attr title "the total time spent  by arrived jobs U1, vector"
attr unit s
vector 4 ResponseTimeNetwork.sink lifeTime:vector ETV
attr interpolationmode none
attr title "lifetime of arrived jobs, vector"
attr unit s
vector 5 ResponseTimeNetwork.sink totalServiceTime:vector ETV
attr interpolationmode none
attr title "the total time spent  by arrived jobs, vector"
attr unit s
vector 6 ResponseTimeNetwork.sink lifeTimeU2:vector ETV
attr interpolationmode none
attr title "lifetime of arrived jobs U2, vector"
attr unit s
vector 7 ResponseTimeNetwork.sink totalServiceTimeU2:vector ETV
attr interpolationmode none
attr title "the total time spent  by arrived jobs U2, vector"
attr unit s
vector 8 ResponseTimeNetwork.SS1 queueLength:vector ETV
attr interpolationmode sample-hold
attr title "queue length, vector"
vector 9 ResponseTimeNetwork.SS2 queueLength:vector ETV
attr interpolationmode sample-hold
attr title "queue length, vector"
0	16065	10005.183712299049	1
0	16066	10006.698826736628	0
0	16075	10008.531590314594	1
0	16076	10009.943688220015	0
0	16085	10012.797484656368	1
0	16086	10013.358028426437	0
0	16135	10089.525458177572	1
0	16136	10091.070351690657	0
0	16150	10094.79716288272	1
0	16151	10095.671755357452	0
0	16160	10097.674394035347	1
0	16206	10114.181468430712	0
0	16345	10166.513396437807	1
0	16346	10167.748521205489	0
0	16620	10350.547893921583	1
0	16621	10351.28167295454	0
0	16640	10360.178244186509	1
0	16641	10360.826317199104	0
0	16645	10361.677468312997	1
0	16646	10362.157374003873	0
0	16655	10367.676723350294	1
0	16656	10368.670762366398	0
0	16667	10381.300707637984	1
0	16676	10384.378720382963	0
0	16695	10390.107508133259	1
0	16716	10397.727157053095	0
0	16727	10400.688802518093	1
0	16736	10404.416408134368	0
0	16772	10437.43289645691	1
0	16779	10438.977442334074	2
0	16788	10443.125264115558	1
0	16791	10444.972908519507	0
0	16855	10503.838051685761	1
0	16856	10504.114886925319	0
0	16880	10535.543534606128	1
0	16881	10535.784084934956	0
0	16991	10595.908710124603	1
0	17011	10602.180400950413	2
0	17033	10611.36271250356	1
0	17036	10612.781290838271	0
0	17040	10613.880016703158	1
0	17041	10614.416321625895	0
0	17045	10614.706535962677	1
0	17046	10616.151323919146	0
0	17050	10618.020392144592	1
0	17051	10618.130570046565	0
0	17055	10618.255832075293	1
0	17057	10618.362488909406	2
0	17058	10619.983051790258	1
0	17062	10620.61045078905	2
0	17063	10621.93739440549	1
0	17066	10623.699697781129	0
0	17205	10696.315505451861	1
0	17206	10697.620402900539	0
0	17220	10701.988843931525	1
0	17221	10703.231010904406	0
0	17230	10704.949254457404	1
0	17231	10706.012733631451	0
0	17385	10788.860596895143	1
0	17386	10790.194514301123	0
0	17409	10797.515618749724	1
0	17496	10827.857152205754	0
0	17540	10845.056177749126	1
0	17541	10846.520162489064	0
0	17673	10909.442819452083	1
0	17691	10917.466833687244	0
0	17715	10927.223731126056	1
0	17731	10933.061896438338	0
0	17742	10937.288074464094	1
0	17751	10941.029004353895	0
0	17765	10944.77211614794	1
0	17769	10946.134033178778	2
0	17776	10947.776549706545	3
0	17778	10947.785912902823	4
0	17795	10953.497848624648	5
0	17819	10961.277430317604	4
0	17822	10963.013546651096	3
0	17825	10964.323000249692	2
0	17828	10965.599619849265	1
0	17846	10972.013955967181	0
0	17855	10975.762877717167	1
0	17857	10976.838555778347	2
0	17858	10977.504541849556	1
0	17861	10979.416748718197	0
0	17917	11009.712008916497	1
0	17926	11014.217253022882	0
0	17935	11016.348313008483	1
0	17936	11017.773882915879	0
0	17950	11022.117284053547	1
0	17951	11023.324451843189	0
0	18035	11074.237151563207	1
0	18041	11077.57998971653	0
0	18065	11089.760499770924	1
0	18066	11091.51473117081	0
0	18175	11190.801138057344	1
0	18177	11191.218074550265	2
0	18178	11191.235000568106	1
0	18187	11193.789344067784	2
0	18188	11194.097757444195	1
0	18201	11198.337851903624	0
0	18209	11198.505083132557	1
0	18216	11202.863132010623	0
0	18250	11241.678608207662	1
0	18252	11242.341561443532	2
0	18253	11242.988692971769	1
0	18256	11244.760310813117	0
0	18285	11262.328696393492	1
0	18286	11262.895153601733	0
0	18330	11277.032393165586	1
0	18341	11281.459718711374	0
0	18345	11281.587957002489	1
0	18349	11282.387021691195	2
0	18353	11284.539818472488	1
0	18356	11286.014213044083	0
0	18362	11286.143477143107	1
0	18372	11289.285240101383	2
0	18378	11292.916423204614	1
0	18396	11298.76778417684	0
0	18407	11301.986211397434	1
0	18419	11304.993622950025	2
0	18428	11308.856742471716	1
0	18436	11311.896742018013	0
0	18450	11315.758835892105	1
0	18461	11319.488694905927	0
0	18485	11331.802679123566	1
0	18496	11336.887798361603	0
0	18655	11399.699339718916	1
0	18656	11400.25591468474	0
0	18670	11406.328504755641	1
0	18671	11408.226407131911	0
0	18689	11412.70250066142	1
0	18711	11419.822040798874	0
0	18725	11427.360455785263	1
0	18726	11427.43845100136	0
0	18730	11427.932780748138	1
0	18731	11429.301583653069	0
0	18775	11465.635866739514	1
0	18776	11466.2545800765	0
0	19185	11786.957633815463	1
0	19186	11787.846927160547	0
0	19235	11828.945720777424	1
0	19246	11832.46940434793	0
0	19250	11833.098821531934	1
0	19251	11833.93488270374	0
0	19257	11835.280042358198	1
0	19331	11860.428058221695	0
0	19337	11860.775383418337	1
0	19341	11863.694168375378	0
0	19550	11996.895333201169	1
0	19551	11997.033508085981	0
0	19560	11999.748979421409	1
0	19561	11999.819258828424	0
0	19570	12001.849674576866	1
0	19581	12006.947747810148	0
0	19720	12088.273516137122	1
0	19721	12089.498216381291	0
0	19840	12172.839258763105	1
0	19854	12176.429468902355	2
0	19863	12179.863926578215	1
0	19866	12181.129679010152	0
0	19987	12260.231064151029	1
0	19991	12261.665573039161	0
0	20005	12268.092844049353	1
0	20006	12268.201954031742	0
0	20115	12321.584529473277	1
0	20146	12331.924590885006	0
0	20150	12332.438033091664	1
0	20159	12334.659015798282	2
0	20168	12338.797523925007	1
0	20171	12340.314590926581	0
0	20220	12368.115138450072	1
0	20221	12368.46962222998	0
0	20240	12375.946006639247	1
0	20241	12376.857255681214	0
0	20280	12408.396722751618	1
0	20281	12408.943742088429	0
0	20290	12411.268542069357	1
0	20291	12412.212804144822	0
0	20325	12436.57178177228	1
0	20326	12436.923327999812	0
0	20335	12444.211950609733	1
0	20336	12445.154389320429	0
0	20490	12569.980437311349	1
0	20491	12570.46261950383	0
0	20500	12572.936737273769	1
0	20501	12573.580336757805	0
0	20555	12601.729637858136	1
0	20556	12601.770075560349	0
0	20642	12710.424712192504	1
0	20652	12714.177571977585	2
0	20653	12714.566164713211	1
0	20657	12714.821289247168	2
0	20663	12717.638501315422	1
0	20666	12719.432322104878	0
0	20677	12724.331992432283	1
0	20684	12724.658373428075	2
0	20689	12726.26839403616	3
0	20695	12728.666879986322	2
0	20703	12731.598574722095	1
0	20706	12733.331335010475	0
0	20710	12734.395195109475	1
0	20711	12735.109632320052	0
0	20720	12738.012149177469	1
0	20721	12738.584030328972	0
0	20730	12740.788627996875	1
0	20731	12742.162924050448	0
0	20735	12742.341426341732	1
0	20736	12743.393656524365	0
0	20740	12743.440737793867	1
0	20741	12744.861611131859	0
0	20760	12785.328320109659	1
0	20761	12785.705153999294	0
0	20795	12806.837766462196	1
0	20796	12807.414827571646	0
0	20800	12807.888102133656	1
0	20801	12808.619002936431	0
0	20809	12809.741213564313	1
0	20822	12814.17318992323	2
0	20823	12814.97753756477	1
0	20831	12817.835052311257	0
0	21215	13009.560085255799	1
0	21301	13041.460708896817	0
0	21495	13172.818673566578	1
0	21541	13188.939459379185	0
0	21552	13190.627349892746	1
0	21561	13195.496420780365	0
0	21630	13224.549298058005	1
0	21631	13225.54464771531	0
0	21670	13243.352918955875	1
0	21671	13244.026430398577	0
0	21715	13267.540387060895	1
0	21716	13268.324883951283	0
0	21737	13276.435625741404	1
0	21742	13277.940116426103	2
0	21743	13278.456506547341	1
0	21746	13280.288958233977	0
0	21765	13287.450978365918	1
0	21781	13293.654736032844	0
0	21810	13322.306326776077	1
0	21831	13329.248290210093	0
0	22021	13473.466597201465	1
0	22041	13483.536364339962	0
0	22099	13507.525004287841	1
0	22112	13510.986903567028	2
0	22118	13511.685254079973	3
0	22150	13522.909594335149	2
0	22153	13524.848024270239	1
0	22156	13526.443956947068	0
0	22162	13526.763082594197	1
0	22169	13528.946821074034	2
0	22194	13537.213885988482	3
0	22195	13537.353744153978	2
0	22198	13538.597323676312	1
0	22202	13538.714818191034	2
0	22203	13540.328014346512	1
0	22206	13541.728061598839	0
0	22210	13542.191037046012	1
0	22212	13542.830487134127	2
0	22213	13542.941012157241	1
0	22216	13544.205971647168	0
0	22220	13544.469213519514	1
0	22221	13545.660804171788	0
0	22227	13545.925266623402	1
0	22232	13548.479084239836	2
0	22233	13549.232893947254	1
0	22236	13551.113845185491	0
0	22240	13551.626048407315	1
0	22241	13552.651185942742	0
0	22480	13709.233621238688	1
0	22481	13709.881603840794	0
0	22505	13731.354809414503	1
0	22506	13732.206225320931	0
0	22520	13737.695337942354	1
0	22531	13742.006454082776	0
0	22545	13746.683147333331	1
0	22551	13749.45740006011	0
0	22562	13752.93723190231	1
0	22566	13754.364763258062	0
0	22575	13757.615482530822	1
0	22576	13758.493602957413	0
0	22605	13821.089524714813	1
0	22606	13821.379100248381	0
0	22700	13890.060978189456	1
0	22701	13891.268649540134	0
0	22717	13895.485680514031	1
0	22721	13896.833681357875	0
0	22965	14120.630271244929	1
0	22966	14122.133311422842	0
0	22975	14124.314263191255	1
0	22977	14125.606179293505	2
0	22978	14125.61647348732	1
0	22991	14130.430879968891	0
0	23022	14161.50629871638	1
0	23041	14167.702992785542	0
0	23117	14217.280748853549	1
0	23126	14221.159375827547	0
0	23137	14224.581236777748	1
0	23142	14225.424560259412	2
0	23148	14228.187800475556	1
0	23159	14230.218333790094	2
0	23183	14239.334820470934	1
0	23186	14241.203139770006	0
0	23205	14250.768113072539	1
0	23206	14251.942141701631	0
0	23285	14295.763471105636	1
0	23286	14295.890258975384	0
0	23295	14298.83633022018	1
0	23301	14301.325311976968	0
0	23322	14320.386452993734	1
0	23336	14325.339665950647	0
0	23345	14327.777537822197	1
0	23401	14347.656050598617	0
0	23410	14350.10876412055	1
0	23411	14350.805656966376	0
0	23435	14360.414935689599	1
0	23436	14361.725213500645	0
0	23505	14401.056393832993	1
0	23506	14401.678618166358	0
0	23691	14480.047563394842	1
0	23698	14481.823424325886	2
0	23715	14487.216163574513	3
0	23735	14495.400273742597	2
0	23738	14497.322853232804	1
0	23747	14499.689176267295	2
0	23748	14501.099638124253	1
0	23751	14502.969889816526	0
0	23760	14505.665079591304	1
0	23761	14506.258889305338	0
0	23870	14569.930631196867	1
0	23882	14573.04812477336	2
0	23923	14587.150238474848	1
0	23926	14588.850574310513	0
0	24002	14639.382323865411	1
0	24006	14642.298098893623	0
0	24089	14669.370535132837	1
0	24109	14677.19075072732	2
0	24113	14679.096079661581	1
0	24117	14680.425030935383	2
0	24118	14680.793331804569	1
0	24121	14682.703674255381	0
0	24125	14683.70386097356	1
0	24132	14685.825079647064	2
0	24133	14685.885167331318	1
0	24137	14686.454256474821	2
0	24138	14687.424017744208	1
0	24141	14689.05212148379	0
0	24152	14691.423124135227	1
0	24166	14697.548987311381	0
0	24440	14871.491883124023	1
0	24446	14873.940086813938	0
0	24495	14897.726930501381	1
0	24501	14899.923067970014	0
0	24680	14996.852060728203	1
0	24681	14998.133060022807	0
0	24700	15005.847381659051	1
0	24701	15007.275562502494	0
0	24710	15010.629426084977	1
0	24711	15010.705452249809	0
0	24750	15033.842319413175	1
0	24757	15036.199345205265	2
0	24758	15036.724952164065	1
0	24761	15038.155113975476	0
0	24777	15042.264545376145	1
0	24781	15044.600984980796	0
0	24795	15048.522928965196	1
0	24796	15049.576710617799	0
0	24977	15172.039149200381	1
0	24979	15172.313353369008	2
0	24988	15175.988111378139	1
0	24991	15177.245325222684	0
0	25000	15179.740315910267	1
0	25004	15180.222161611651	2
0	25016	15183.180837480549	3
0	25020	15185.705271130457	2
0	25029	15187.581188848409	3
0	25030	15189.366364792764	2
0	25034	15190.109507860626	3
0	25035	15191.121625956364	2
0	25044	15193.94900156592	3
0	25045	15194.620603542991	2
0	25049	15195.587815275496	3
0	25050	15196.606953674771	2
0	25054	15197.314767748391	3
0	25055	15198.591899237253	2
0	25059	15198.919771807599	3
0	25060	15200.321576734849	2
0	25063	15202.042723734149	1
0	25066	15203.804137923599	0
0	25187	15294.126220328234	1
0	25191	15297.139867176361	0
0	25200	15300.223023744589	1
0	25201	15300.960928452932	0
0	25205	15301.26771284633	1
0	25207	15301.421135349351	2
0	25209	15302.456630923739	3
0	25210	15302.856632541851	2
0	25213	15304.601551168398	1
0	25216	15305.962026502364	0
0	25220	15306.684593506433	1
0	25221	15307.508287079804	0
0	25230	15309.886325660128	1
0	25231	15310.820899432703	0
0	25235	15312.165364707595	1
0	25236	15312.401949093855	0
0	25240	15313.085014979316	1
0	25241	15314.204217488869	0
0	25245	15316.010866063077	1
0	25246	15316.139946226022	0
0	25250	15316.177190462597	1
0	25252	15316.628625873859	2
0	25253	15317.340411162554	1
0	25257	15317.356180345659	2
0	25258	15318.671122957012	1
0	25261	15320.362946477151	0
0	25282	15325.94331695177	1
0	25286	15327.717000688161	0
0	25405	15413.650666604034	1
0	25406	15414.384070838456	0
0	25425	15427.011604985062	1
0	25426	15427.071999359475	0
0	25445	15441.954474398972	1
0	25446	15442.105317118234	0
0	25472	15452.038601005796	1
0	25476	15453.348965329754	0
0	25492	15457.471839411479	1
0	25506	15462.655668046549	0
0	25530	15474.89774652785	1
0	25531	15475.714517221755	0
0	25547	15479.951880087269	1
0	25552	15481.102963642796	2
0	25553	15482.322031671709	1
0	25561	15485.705273076861	0
0	25642	15517.703217458344	1
0	25646	15519.665539927901	0
0	25670	15530.498475281536	1
0	25671	15530.972948387067	0
0	25822	15597.597804275303	1
0	25841	15604.914870220485	0
0	25850	15608.298962335882	1
0	25851	15608.676934033374	0
0	25869	15612.99151005591	1
0	25891	15619.17479456439	2
0	25903	15625.068521256488	1
0	25906	15626.45965511084	0
0	25910	15626.525667514087	1
0	25911	15628.195801841956	0
0	25970	15690.999320069024	1
0	25971	15691.543611453188	0
0	25982	15694.999101892773	1
0	25986	15696.736710905185	0
0	25995	15703.572034148649	1
0	25996	15704.34324673584	0
0	26000	15704.601530498428	1
0	26006	15707.592999768651	0
0	26015	15710.644251415479	1
0	26017	15711.094931544274	2
0	26018	15711.858350296497	1
0	26027	15714.414163519392	2
0	26028	15714.610608340792	1
0	26036	15717.282012611806	0
0	26175	15799.153338453138	1
0	26176	15799.662459797268	0
0	26200	15817.662847418831	1
0	26201	15818.109782523964	0
0	26205	15818.824619172351	1
0	26206	15819.87403316379	0
0	26215	15822.937230746748	1
0	26216	15823.275748662907	0
0	26220	15823.510329148144	1
0	26221	15824.52857391059	0
0	26227	15826.111258922714	1
0	26231	15827.73320190895	0
0	26387	15954.08850549633	1
0	26391	15956.928702343499	0
0	26427	15968.866989928805	1
0	26437	15971.307837082064	2
0	26438	15972.438548864428	1
0	26441	15974.057408250313	0
0	26445	15975.647050498599	1
0	26446	15975.860887429494	0
0	26465	15989.39079679012	1
0	26466	15990.435539397236	0
0	26507	16019.816896341808	1
0	26516	16024.142107264992	0
0	26540	16031.582229345591	1
0	26541	16032.638520769161	0
0	26645	16088.078974082349	1
0	26646	16089.051974039619	0
0	26890	16336.526333030667	1
0	26891	16337.519141814911	0
0	26905	16342.447547055493	1
0	26906	16343.705128404132	0
0	26915	16348.839249671195	1
0	26916	16348.993859429555	0
0	26925	16351.754468013099	1
0	26926	16351.939296065727	0
0	26935	16354.190042190452	1
0	26936	16355.615524397131	0
0	26947	16357.514807848096	1
0	26951	16360.78069502962	0
0	26965	16365.693694734775	1
0	26966	16365.973450725135	0
0	26997	16377.217971609632	1
0	27031	16389.311111662841	0
0	27255	16526.358362289843	1
0	27256	16526.762453363059	0
0	27372	16593.681311176023	1
0	27376	16596.554640293853	0
0	27385	16598.540030277293	1
0	27386	16600.391055335463	0
0	27405	16608.306337458724	1
0	27406	16609.492894485295	0
0	27415	16611.268202907101	1
0	27416	16612.780007610731	0
0	27450	16643.491957727857	1
0	27451	16644.584645848213	0
0	27455	16646.0322738986	1
0	27456	16646.101361767626	0
0	27500	16718.028031425875	1
0	27501	16719.525666720148	0
0	27716	16852.828108975706	1
0	27736	16859.605384321811	2
0	27758	16866.295648572759	3
0	27785	16876.19685918824	2
0	27803	16882.507496685397	1
0	27807	16882.609071537878	2
0	27808	16884.47034460162	1
0	27812	16884.689841074865	2
0	27818	16887.766054447602	1
0	27826	16890.982138684812	0
0	27982	16990.789326519874	1
0	28001	16998.206577628169	0
0	28010	17000.314464403728	1
0	28016	17003.373683737372	0
0	28230	17159.184970699629	1
0	28231	17159.850919543179	0
0	28240	17161.756690210022	1
0	28241	17162.606192960376	0
0	28287	17183.284388323423	1
0	28291	17185.086739102393	0
0	28307	17188.86963253786	1
0	28346	17202.741434705085	0
0	28365	17211.781731601234	1
0	28367	17212.343085102293	2
0	28368	17212.61696351085	1
0	28377	17215.076770703743	2
0	28378	17215.887618103886	1
0	28381	17217.256195593143	0
0	28387	17217.67504057123	1
0	28389	17218.861171620256	2
0	28394	17219.836799623949	3
0	28395	17220.378576249892	2
0	28398	17222.182477795968	1
0	28406	17225.648004601786	0
0	28410	17226.259569193741	1
0	28416	17228.494030512945	0
0	28420	17228.608446558473	1
0	28434	17232.801419641584	2
0	28439	17233.423824772431	3
0	28455	17239.634568197915	2
0	28458	17241.437994889432	1
0	28461	17242.905773046875	0
0	28470	17244.739876356876	1
0	28471	17246.083085542807	0
0	28512	17274.629952023648	1
0	28521	17278.118715835636	0
0	28545	17299.827226843397	1
0	28546	17299.935531768684	0
0	28550	17300.123880773905	1
0	28551	17301.855509279032	0
0	28597	17332.334624944747	1
0	28611	17338.427464099616	0
0	28625	17345.160372445643	1
0	28641	17352.159774660011	0
0	28650	17354.838973865397	1
0	28651	17355.841810318239	0
0	28657	17356.459504163849	1
0	28659	17357.261278934701	2
0	28668	17360.638346242688	1
0	28677	17362.858467702543	2
0	28678	17363.639171490601	1
0	28682	17364.623007696783	2
0	28683	17364.857879219359	1
0	28687	17365.665156639328	2
0	28688	17366.480817320911	1
0	28692	17367.114301797429	2
0	28693	17368.251427073	1
0	28696	17369.899853474056	0
0	28780	17438.912412921422	1
0	28781	17440.41656433682	0
0	28790	17443.374216999411	1
0	28791	17443.652567469729	0
0	28810	17448.430009420756	1
0	28812	17449.070603472436	2
0	28813	17450.284077495923	1
0	28826	17454.761885322286	0
0	28880	17512.454648781317	1
0	28881	17514.334206817463	0
0	28906	17520.192487968541	1
0	28921	17527.538455003773	0
0	28930	17530.068378224467	1
0	28931	17530.118598135275	0
0	28945	17533.607555514823	1
0	28946	17534.533703416114	0
0	28994	17560.581564659878	1
0	29001	17564.49375218605	0
0	29014	17566.797325421536	1
0	29021	17570.494961762292	0
0	29245	17772.591571268743	1
0	29261	17778.903560436031	0
0	29320	17817.005885171251	1
0	29321	17817.820340518309	0
0	29375	17873.120993952666	1
0	29376	17873.9978205755	0
0	29385	17875.611407090647	1
0	29386	17877.052125175262	0
0	29430	17929.348506279471	1
0	29431	17930.450990914431	0
0	29440	17932.742842555575	1
0	29441	17933.621203718771	0
0	29497	17966.812559782249	1
0	29501	17968.925241028069	0
0	29560	18040.308021056733	1
0	29561	18040.789249760723	0
0	29565	18040.94397073707	1
0	29566	18042.431537496923	0
0	29652	18083.085979046349	1
0	29661	18086.181374775217	0
0	30034	18325.990228368819	1
0	30046	18331.962923404352	0
0	30065	18345.248955029227	1
0	30066	18346.228642337103	0
0	30177	18399.28132099845	1
0	30181	18401.421261373357	0
0	30190	18403.440189762742	1
0	30192	18404.255168937314	2
0	30193	18404.348794908085	1
0	30196	18405.822067131297	0
0	30209	18408.082337970617	1
0	30219	18412.026480437815	2
0	30223	18413.849906267235	1
0	30232	18415.295376645817	2
0	30233	18416.490100990059	1
0	30241	18419.604651938575	0
0	30280	18455.950659376826	1
0	30281	18456.542754399465	0
0	30370	18517.975133157081	1
0	30371	18518.952048627952	0
0	30555	18659.725190245511	1
0	30556	18661.571088997947	0
0	30567	18663.883020114711	1
0	30596	18673.651100905354	0
0	30607	18677.35345366135	1
0	30611	18678.878509114983	0
0	30617	18679.993907371743	1
0	30621	18682.192120434644	0
0	30715	18732.958757358769	1
0	30716	18733.633030243286	0
0	30725	18735.994924446644	1
0	30727	18736.297330025277	2
0	30728	18736.774500554123	1
0	30731	18738.363014497303	0
0	30824	18836.652039143314	1
0	30841	18844.7010095303	0
0	30850	18846.6564778599	1
0	30856	18849.534311663271	0
0	30920	18906.837753114681	1
0	30921	18908.328571922369	0
0	31125	19025.478778743133	1
0	31126	19026.374076613253	0
0	31164	19040.483334761465	1
0	31176	19045.638093579633	0
0	31202	19053.759093853343	1
0	31207	19056.444165014747	2
0	31208	19056.468468419535	1
0	31211	19058.462165956458	0
0	31217	19059.901363206062	1
0	31221	19061.76938881099	0
0	31225	19062.298742107628	1
0	31226	19063.555483127085	0
0	31305	19109.600186832241	1
0	31306	19110.877058756979	0
0	31325	19116.157425958247	1
0	31326	19117.557748987536	0
0	31340	19120.761748168466	1
0	31366	19130.277411241281	0
0	31455	19193.23168514049	1
0	31456	19194.364060196666	0
0	31469	19196.535378467544	1
0	31486	19203.915074862925	0
0	31550	19233.057668456866	1
0	31551	19234.345984366729	0
0	31555	19235.294353493691	1
0	31556	19236.165904642462	0
0	31605	19267.540733496639	1
0	31606	19267.872601424467	0
0	31620	19272.747159097606	1
0	31621	19273.151574310256	0
0	31665	19311.88236409109	1
0	31666	19312.660521393309	0
0	31670	19312.83291409358	1
0	31671	19314.611594942252	0
0	31675	19315.918700073445	1
0	31676	19315.939109328615	0
0	31680	19316.024659862997	1
0	31681	19317.582268041784	0
0	31735	19373.040521707346	1
0	31736	19373.482738439519	0
0	31745	19376.529182126102	1
0	31746	19376.69441644645	0
0	31772	19387.657314821351	1
0	31777	19389.47197143988	2
0	31778	19389.513795013439	1
0	31916	19435.400113635409	0
0	31932	19439.149252552315	1
0	31936	19440.338551077558	2
0	32003	19462.9957443484	1
0	32006	19464.451249385708	0
0	32020	19469.298796922596	1
0	32021	19469.547080804941	0
0	32085	19504.397405469912	1
0	32086	19504.591220288467	0
0	32260	19594.258417941223	1
0	32261	19594.345409260279	0
0	32302	19617.113289383656	1
0	32306	19620.207491487191	0
0	32395	19660.914834338139	1
0	32436	19676.837135695238	0
0	32445	19679.870116471888	1
0	32446	19679.973954468537	0
0	32460	19684.232643958665	1
0	32461	19685.067167155345	0
0	32477	19689.309305732282	1
0	32481	19692.429006935837	0
0	32485	19693.014187246224	1
0	32486	19693.824247492472	0
0	32490	19694.40016502074	1
0	32491	19695.271975660691	0
0	32532	19716.038963570971	1
0	32536	19718.910196709618	0
0	32550	19728.80800287873	1
0	32552	19729.850436018732	2
0	32553	19729.914527340159	1
0	32556	19731.30915729601	0
0	32620	19805.50755833116	1
0	32626	19808.519468691877	0
0	32630	19810.022613857186	1
0	32631	19810.438395080461	0
0	32640	19813.421177368544	1
0	32641	19814.323196938074	0
0	32677	19825.129886046088	1
0	32679	19826.368496998077	2
0	32693	19830.958435056832	1
0	32716	19836.193694973376	2
0	32720	19837.343529367961	3
0	32765	19852.363288503614	2
0	32791	19860.547359901264	3
0	32800	19864.503585337205	2
0	32809	19867.188781941575	3
0	32810	19868.253478697418	2
0	32818	19871.47172017145	1
0	32824	19872.653325167723	2
0	32834	19876.156769936431	3
0	32835	19877.135333993761	2
0	32846	19880.447910808571	3
0	32850	19882.342261679014	2
0	32853	19883.820235331273	1
0	32856	19885.236681649564	0
0	32865	19887.520065157724	1
0	32867	19887.686919959264	2
0	32871	19889.010402048023	3
0	32875	19891.059096838153	2
0	32883	19894.466920559472	1
0	32892	19896.068662877596	2
0	32898	19898.557502378514	1
0	32902	19899.480917371535	2
0	32903	19899.820379558196	1
0	32907	19900.243646888965	2
0	32908	19901.760693500926	1
0	32911	19903.141559169804	0
0	32920	19906.342674560216	1
0	32921	19906.66755189876	0
0	32955	19926.623043162977	1
0	32956	19926.752103585833	0
0	33050	20004.13882816263	1
0	33051	20004.48216988115	0
0	33085	20015.519366515239	1
0	33091	20017.821431221127	0
0	33100	20020.100535862376	1
0	33101	20020.726948950127	0
0	33145	20047.164659722797	1
0	33146	20047.943782924728	0
0	33157	20049.999931604918	1
0	33161	20052.624553824269	0
0	33334	20150.407576416606	1
0	33356	20159.947825429016	0
0	33360	20160.07623516356	1
0	33367	20161.990830079622	2
0	33438	20185.635370742331	1
0	33441	20186.9945398284	0
0	33475	20233.355842828852	1
0	33476	20233.599634410048	0
0	33500	20246.572965791903	1
0	33501	20247.914007676939	0
0	33517	20255.071792350751	1
0	33519	20256.530759448434	2
0	33523	20258.329835238521	1
0	33537	20262.37880796488	2
0	33538	20263.260642764745	1
0	33552	20267.848222024437	2
0	33553	20268.380287916986	1
0	33556	20269.766917294292	0
0	33560	20270.315096873777	1
0	33561	20271.493480671039	0
0	33565	20272.294901247452	1
0	33566	20273.27309957373	0
0	33570	20273.657728088431	1
0	33571	20275.128092193632	0
0	33580	20277.866853340169	1
0	33581	20278.804811273916	0
0	33587	20279.484280410131	1
0	33591	20281.604658878064	0
0	33610	20295.123540936807	1
0	33611	20296.684398308464	0
0	33620	20298.195844292081	1
0	33621	20299.916007693925	0
0	33654	20309.172285849855	1
0	33660	20310.544100200341	2
0	33683	20320.690493323909	1
0	33686	20322.46178455192	0
0	33715	20336.225987617898	1
0	33731	20342.044022037337	0
0	33750	20347.031509947498	1
0	33751	20348.779703229953	0
0	33975	20508.19735751414	1
0	33976	20509.402571573887	0
0	33995	20533.528541876456	1
0	33996	20534.523930246256	0
0	34018	20538.656448003212	1
0	34032	20542.223886804191	2
0	34039	20542.8887615389	3
0	34070	20556.730095556064	2
0	34086	20560.622064203649	3
0	34115	20573.039764843754	2
0	34124	20574.612154786967	3
0	34145	20583.3953998868	2
0	34153	20586.471958927682	1
0	34166	20589.154734363792	2
0	34188	20598.223911470419	1
0	34211	20606.879433531931	0
0	34220	20609.513203724125	1
0	34231	20613.015331575519	0
0	34275	20637.010051083083	1
0	34276	20638.401926103738	0
0	34332	20659.941457310555	1
0	34344	20662.903186876505	2
0	34348	20665.40289815105	1
0	34351	20667.400343710365	0
0	34355	20667.928710503107	1
0	34356	20668.66675534788	0
0	34367	20680.41616926366	1
0	34372	20681.972710596361	2
0	34373	20682.152325974601	1
0	34376	20683.872711732807	0
0	34390	20689.10739508452	1
0	34411	20696.3491121506	0
0	34425	20703.984109946826	1
0	34426	20705.195481846097	0
0	34442	20709.327754936178	1
0	34447	20711.086198312497	2
0	34448	20711.905548396238	1
0	34468	20715.906373761374	2
0	34493	20725.808998473452	1
0	34502	20728.472566662773	2
0	34503	20728.780718127357	1
0	34512	20731.409408074882	2
0	34513	20732.157299750389	1
0	34522	20734.416582448425	2
0	34523	20735.91739879837	1
0	34534	20738.487768015819	2
0	34538	20740.533572806323	1
0	34547	20742.8365954461	2
0	34548	20743.619196464585	1
0	34556	20747.292671481984	0
0	34695	20870.141937881089	1
0	34696	20870.232266441504	0
0	34785	20907.757617770588	1
0	34786	20908.248917394147	0
0	34795	20911.104038084137	1
0	34796	20911.706321931646	0
0	34800	20912.752733340279	1
0	34807	20913.31168107536	2
0	34808	20915.003472879731	1
0	34811	20916.819391497799	0
0	34950	21021.845710328859	1
0	34956	21024.15289014532	0
0	34980	21031.281308877041	1
0	34981	21031.924792309247	0
0	35100	21139.668906068123	1
0	35101	21141.184293419014	0
0	35325	21308.239815354437	1
0	35326	21308.614391835062	0
0	35360	21356.509133177936	1
0	35361	21357.750614688067	0
0	35625	21527.542743379016	1
0	35626	21528.467172400137	0
0	35660	21541.062282289556	1
0	35661	21541.237220658167	0
0	35670	21543.14994448837	1
0	35671	21545.064433027236	0
0	35690	21556.872468905976	1
0	35691	21557.811005786831	0
0	35737	21587.384459508137	1
0	35741	21589.693715947436	0
0	35980	21737.35259614408	1
0	35981	21738.172565120501	0
0	36010	21750.681105221054	1
0	36011	21751.314485230238	0
0	36020	21753.455735911927	1
0	36026	21756.499204367164	0
0	36035	21760.713511337953	1
0	36037	21761.022413040199	2
0	36038	21761.119245114685	1
0	36041	21762.986933756382	0
0	36055	21767.917039179303	1
0	36056	21768.548171679166	0
0	36065	21776.000674878612	1
0	36086	21783.205211451223	0
0	36097	21786.881725348549	1
0	36104	21788.245423745837	2
0	36118	21793.344116556094	1
0	36127	21795.886916261413	2
0	36128	21796.539284851969	1
0	36136	21799.977166712851	0
0	36145	21802.523709542488	1
0	36151	21805.008872491875	0
0	36272	21879.471149796215	1
0	36296	21887.05236951541	0
0	36310	21889.84756499389	1
0	36319	21892.183132563899	2
0	36323	21894.540446700898	1
0	36326	21896.254862787199	0
0	36330	21897.356473809291	1
0	36331	21897.694151493159	0
0	36335	21898.769563693181	1
0	36336	21899.478665944	0
0	36345	21902.657654920111	1
0	36346	21902.839455858716	0
0	36355	21905.972528901462	1
0	36356	21907.154345588673	0
0	36360	21907.237397901953	1
0	36362	21908.013182141063	2
0	36363	21908.357833698865	1
0	36372	21911.407976575307	2
0	36373	21911.579905809749	1
0	36381	21914.883452611518	0
0	36400	21920.948717039141	1
0	36402	21921.014716207989	2
0	36413	21926.685598443214	1
0	36416	21928.043124805529	0
0	36420	21928.198592538068	1
0	36491	21950.604673231531	0
0	36495	21950.676540027237	1
0	36501	21954.230371599409	0
0	36520	21966.500451536547	1
0	36521	21967.159301856966	0
0	36575	21992.905234571643	1
0	36576	21993.976428942601	0
0	36582	21994.883055182693	1
0	36601	22001.409053709018	0
0	36617	22005.022215596057	1
0	36621	22007.598673265895	0
0	36700	22064.821836967051	1
0	36701	22066.225448417348	0
0	36797	22128.930826826419	1
0	36806	22134.051681035136	0
0	36835	22179.883120822011	1
0	36836	22180.080392906942	0
0	36845	22182.98602055892	1
0	36846	22183.54456474831	0
0	36862	22191.842458996776	1
0	36866	22194.038193714813	0
0	36884	22198.34521183656	1
0	36891	22202.252173328036	0
0	36980	22246.737458950244	1
0	36981	22247.587130249932	0
0	37005	22270.601280042204	1
0	37006	22271.795798279511	0
0	37025	22277.732703395115	1
0	37051	22286.409555453769	0
0	37060	22289.470833763956	1
0	37061	22289.767822549909	0
0	37070	22291.652726740513	1
0	37072	22292.432203163163	2
0	37108	22303.781827310702	1
0	37111	22305.141055722391	0
0	37140	22316.643645742124	1
0	37141	22317.702308920631	0
0	37180	22343.776149369133	1
0	37181	22345.31198069544	0
0	37220	22375.884435738089	1
0	37221	22376.703945378817	0
0	37225	22377.084862508734	1
0	37226	22378.631591415636	0
0	37365	22462.582100749417	1
0	37366	22462.845116438803	0
0	37387	22468.886550417295	1
0	37396	22472.646519175677	0
0	37460	22534.592525886328	1
0	37461	22535.242113082991	0
0	37500	22561.645586422493	1
0	37501	22562.311796007876	0
0	37625	22652.646457885753	1
0	37627	22653.398811177708	2
0	37628	22653.696438757943	1
0	37666	22666.414521843995	0
0	37815	22799.967220296857	1
0	37816	22800.319377473977	0
0	37840	22812.602890374368	1
0	37841	22813.013621128629	0
0	37882	22834.670431069054	1
0	37894	22837.71044301537	2
0	37899	22838.132504561359	3
0	37900	22838.945404584685	2
0	37908	22842.069344719851	1
0	37911	22843.318090511093	0
0	37917	22844.026982743357	1
0	37919	22844.551277286868	2
0	37924	22845.896097457283	3
0	37925	22846.51124662997	2
0	37928	22847.759959661195	1
0	37932	22849.050600172086	2
0	37933	22849.59719430914	1
0	37936	22851.080096909197	0
0	37960	22877.680379728419	1
0	37961	22878.847573839344	0
0	38220	23066.604807815852	1
0	38221	23067.348424381289	0
0	38230	23070.038390063173	1
0	38231	23070.820694027927	0
0	38290	23139.549442144174	1
0	38291	23140.993435453469	0
0	38300	23143.532671182889	1
0	38321	23150.224656183491	0
0	38340	23160.268555871404	1
0	38341	23161.663107912513	0
0	38347	23162.748353316043	1
0	38352	23163.352963878068	2
0	38354	23163.955687434596	3
0	38356	23164.525846288315	4
0	38358	23164.79911420813	5
0	38359	23164.960899096439	4
0	38363	23165.028978388867	5
0	38409	23181.179281345093	4
0	38417	23184.384616378219	3
0	38428	23186.566472171566	4
0	38442	23193.06497545083	3
0	38450	23195.941396035337	2
0	38464	23198.960712715691	3
0	38485	23206.256682988898	2
0	38493	23209.718831215695	1
0	38496	23211.049109006569	0
0	38565	23245.482299221743	1
0	38566	23246.016361359129	0
0	38635	23327.042194683516	1
0	38636	23327.919920948797	0
0	38712	23381.228492527923	1
0	38721	23385.103471178128	0
0	38734	23387.990621617911	1
0	38766	23397.973456329427	2
0	38788	23407.008294062814	1
0	38797	23410.042555695157	2
0	38798	23410.858652747548	1
0	38806	23414.532010405636	0
0	38835	23448.586960845248	1
0	38836	23450.112391890342	0
0	38840	23450.211144167898	1
0	38841	23451.391761053483	0
0	38850	23456.256285780888	1
0	38851	23456.897693429062	0
0	38860	23460.125251301693	1
0	38861	23461.44632357568	0
0	38867	23462.894777287681	1
0	38872	23464.009854666857	2
0	38873	23464.829107309548	1
0	38879	23466.758824825793	2
0	38883	23468.340458391464	1
0	38886	23470.269071596718	0
0	38950	23518.965594400267	1
0	38951	23518.973189825291	0
0	39130	23625.881186508118	1
0	39131	23626.500313909897	0
0	39182	23660.367552647554	1
0	39202	23666.265865195165	2
0	39233	23678.478788766153	1
0	39246	23681.84752898038	2
0	39278	23692.035060118401	1
0	39286	23695.279549227545	0
0	39420	23779.047095897994	1
0	39421	23779.307876763346	0
0	39437	23782.630624681873	1
0	39441	23785.660328466857	0
0	39534	23827.868927878412	1
0	39541	23831.247095004433	0
0	39552	23834.083578376914	1
0	39556	23836.237551687643	0
0	39615	23868.882126556649	1
0	39616	23869.456680795232	0
0	39620	23870.042822025219	1
0	39621	23871.349245763252	0
0	39625	23871.459804992863	1
0	39627	23871.53144619419	2
0	39628	23872.826282996366	1
0	39632	23872.898860226103	2
0	39633	23874.453519964831	1
0	39642	23876.103875345163	2
0	39649	23878.172452742582	3
0	39650	23878.976348111274	2
0	39653	23880.592918490114	1
0	39661	23883.970700365545	0
0	39687	23892.083405252611	1
0	39706	23898.295218634444	0
0	39895	24015.131997276269	1
0	39906	24020.289231694926	0
0	40025	24062.974136111428	1
0	40026	24063.161672023774	0
0	40080	24096.78567479463	1
0	40081	24097.704144633168	0
0	40090	24099.853237850273	1
0	40091	24100.904994293386	0
0	40275	24190.51925352344	1
0	40276	24191.069495252547	0
0	40285	24193.051810977722	1
0	40286	24194.332655258318	0
0	40300	24201.038125083229	1
0	40301	24201.908605667898	0
0	40360	24230.664140147227	1
0	40361	24231.684022474235	0
0	40425	24260.370546797743	1
0	40426	24261.770594069054	0
0	40540	24343.413200722425	1
0	40541	24345.086433471336	0
0	40627	24401.020503574255	1
0	40629	24401.090952206724	2
0	40633	24403.196533694538	1
0	40636	24404.405723439949	0
0	40647	24406.683465649517	1
0	40652	24407.636192826874	2
0	40653	24408.992000552686	1
0	40656	24410.341659902642	0
0	40660	24410.468570723216	1
0	40661	24411.854296013201	0
0	40665	24411.936584850697	1
0	40666	24413.707903689752	0
0	40670	24414.433208914853	1
0	40677	24416.576649464846	2
0	40678	24417.05761877154	1
0	40681	24418.979174347641	0
0	40765	24457.608190200123	1
0	40771	24459.895366012935	0
0	40780	24462.437036772008	1
0	40781	24462.577092846554	0
0	40792	24465.610092638589	1
0	40796	24467.540947855335	0
0	40815	24475.254587821923	1
0	40816	24475.672022590269	0
0	40827	24478.158160757452	1
0	40846	24484.604864514848	0
0	40855	24487.561297760362	1
0	40856	24487.814106533347	0
0	41015	24605.428188019135	1
0	41016	24606.663931886589	0
0	41047	24621.940962020338	1
0	41051	24623.560558423654	0
0	41210	24697.633424532329	1
0	41226	24703.177238716347	0
0	41280	24735.729609323258	1
0	41281	24736.000304326728	0
0	41290	24742.018820606703	1
0	41291	24742.342485587579	0
0	41300	24744.739860928116	1
0	41301	24745.874701071997	0
0	41370	24795.555167047646	1
0	41371	24797.035634374585	0
0	41382	24798.86344991375	1
0	41386	24802.011633934047	0
0	41390	24803.506706534954	1
0	41391	24803.719408357482	0
0	41460	24863.36540354727	1
0	41461	24863.630736089661	0
0	41595	24949.76957500262	1
0	41596	24950.248433336895	0
0	41645	24974.396912822023	1
0	41646	24975.542031510063	0
0	41680	24987.504990878817	1
0	41681	24987.571998847929	0
0	41690	24989.582169164256	1
0	41691	24991.161212143769	0
0	41715	25008.834897795698	1
0	41716	25010.340682947879	0
0	41735	25017.280742952076	1
0	41737	25018.204511225797	2
0	41738	25018.645376086607	1
0	41756	25024.356584121472	0
0	41870	25125.78683191996	1
0	41876	25127.950089812927	0
0	41895	25133.610465216341	1
0	41913	25138.077353734185	2
0	41928	25144.906888563599	1
0	41931	25146.29482815903	0
0	41940	25148.492321180456	1
0	41941	25149.653260212432	0
0	41980	25185.034178033271	1
0	41981	25185.795411226552	0
0	41992	25187.926544792451	1
0	42001	25192.558598629785	0
0	42055	25224.36438180972	1
0	42056	25224.814828535239	0
0	42242	25336.721994628326	1
0	42246	25338.135202810961	0
0	42345	25436.54228366965	1
0	42346	25437.69900458241	0
0	42359	25440.477693032517	1
0	42361	25441.1408388971	2
0	42383	25449.082878644114	1
0	42386	25450.508887756711	0
0	42395	25452.396536343905	1
0	42396	25453.55613542041	0
0	42455	25495.178857081265	1
0	42466	25499.4149271852	0
0	42730	25669.792754273091	1
0	42731	25671.120001814179	0
0	42765	25722.394000067469	1
0	42766	25722.881669878259	0
0	42777	25725.927601168868	1
0	42791	25731.881693584435	0
0	43060	25869.758318099606	1
0	43061	25869.986007754188	0
0	43080	25879.533726014691	1
0	43081	25880.594144828562	0
0	43135	25897.947298666652	1
0	43141	25901.102764801616	0
0	43215	25982.657565997776	1
0	43216	25983.49809049288	0
0	43230	25995.729089774687	1
0	43231	25997.234637813945	0
0	43252	26002.93796054484	1
0	43266	26008.136100267963	0
0	43295	26019.149891893799	1
0	43296	26019.320116146263	0
0	43305	26027.034140868905	1
0	43306	26028.329980502854	0
0	43325	26039.440713434774	1
0	43326	26040.779614067361	0
0	43395	26075.752978793447	1
0	43396	26076.782643927298	0
0	43617	26247.800583065333	1
0	43621	26249.934513191114	0
0	43671	26268.494214142948	1
0	43696	26279.256452921879	0
0	43715	26287.87837413219	1
0	43716	26289.067227752816	0
0	43790	26346.305755827321	1
0	43791	26348.03682235054	0
0	43830	26373.047125531614	1
0	43831	26373.202322155536	0
0	43840	26374.978555190241	1
0	43847	26377.13371158762	2
0	43848	26378.617837264941	1
0	43851	26380.482510774949	0
0	43905	26432.011189664066	1
0	43909	26432.781389841862	2
0	43913	26434.803791398041	1
0	43922	26436.383338101598	2
0	43923	26437.99240450342	1
0	43927	26438.252444906637	2
0	43928	26439.635346060105	1
0	43936	26442.784736415976	0
0	43945	26445.200427839599	1
0	43946	26446.565913961152	0
0	43950	26447.846575459746	1
0	43969	26452.444263925746	2
0	43988	26460.111685033771	1
0	44002	26463.84125056112	2
0	44003	26465.211356796022	1
0	44006	26466.745590753737	0
0	44010	26467.6408975598	1
0	44011	26468.603338858369	0
0	44110	26538.448860855805	1
0	44111	26539.422955861368	0
0	44122	26543.21430476585	1
0	44136	26548.482070284185	0
0	44170	26606.948525385531	1
0	44171	26607.184887729601	0
0	44220	26639.518685406434	1
0	44221	26639.701075588682	0
0	44245	26658.122825185433	1
0	44246	26659.612002412326	0
0	44252	26660.212004550851	1
0	44257	26661.053632171171	2
0	44258	26662.16536927922	1
0	44266	26664.818187597676	0
0	44275	26666.461549417291	1
0	44276	26667.628849553599	0
0	44325	26695.168510736325	1
0	44326	26695.984593943427	0
0	44335	26697.986737840287	1
0	44336	26698.952584047723	0
0	44345	26702.420016222752	1
0	44346	26702.553679108727	0
0	44442	26743.150378462562	1
0	44451	26746.014268056579	0
0	44510	26788.456323166906	1
0	44511	26789.33801157516	0
0	44550	26838.119459446916	1
0	44551	26840.026064119706	0
0	44560	26843.653403628739	1
0	44567	26845.068897143176	2
0	44568	26846.128045832253	1
0	44586	26851.49739823982	0
0	44597	26853.971323663291	1
0	44621	26863.396371557444	0
0	44634	26866.111584012775	1
0	44663	26873.657215280033	2
0	44671	26877.768726296338	3
0	44686	26881.639621659389	4
0	44692	26884.51218169096	3
0	44695	26885.740982508353	2
0	44698	26887.616246377184	1
0	44702	26888.82989938899	2
0	44703	26889.131514014556	1
0	44706	26890.478338268652	0
0	44730	26904.574264056614	1
0	44731	26905.449646142553	0
0	44744	26907.062976290678	1
0	44758	26910.169308547528	2
0	44804	26927.086664673312	3
0	44805	26927.461044755261	2
0	44831	26935.095762673614	3
0	44885	26953.411192914715	2
0	44888	26954.968738932593	1
0	44894	26955.945516400448	2
0	44899	26957.792208606026	3
0	44900	26957.992765509581	2
0	44913	26962.367606074234	1
0	44921	26965.756952241493	0
0	44934	26968.049487496201	1
0	44944	26970.289853247317	2
0	44973	26982.022218592894	1
0	44976	26983.716019816939	0
0	45060	27047.639634392315	1
0	45061	27047.925204771251	0
0	45325	27181.586738827564	1
0	45326	27183.074942284806	0
0	45349	27189.574743043847	1
0	45361	27194.665932478553	0
0	45385	27202.91263867222	1
0	45386	27203.84206959909	0
0	45392	27204.705442252603	1
0	45396	27207.496969158447	0
0	45450	27240.315196141941	1
0	45451	27241.452127491352	0
0	45565	27295.624326517423	1
0	45566	27295.998878097201	0
0	45605	27330.978111690928	1
0	45606	27332.447492663367	0
0	45630	27343.241174529726	1
0	45631	27343.754139061306	0
0	45675	27364.810292236601	1
0	45676	27364.959123601005	0
0	45705	27381.958082552971	1
0	45706	27381.967013153985	0
0	45780	27430.863802441717	1
0	45781	27431.312476801941	0
0	45799	27435.403773285964	1
0	45806	27438.491968102502	0
0	45825	27472.991025791321	1
0	45826	27473.0782030626	0
0	45835	27476.47035238859	1
0	45836	27477.778384926516	0
0	46217	27779.884323874066	1
0	46222	27781.923080728666	2
0	46263	27795.424751314517	1
0	46266	27796.696852537241	0
0	46325	27842.8393521889	1
0	46326	27843.964543832415	0
0	46345	27857.3616395234	1
0	46346	27857.520669528747	0
0	46365	27872.476280752292	1
0	46371	27875.445168994777	0
0	46382	27879.976768566722	1
0	46396	27884.478077617993	0
0	46470	27951.977151589633	1
0	46471	27952.038725303501	0
0	46515	27988.165833860722	1
0	46516	27989.868905636049	0
0	46755	28131.215429901892	1
0	46756	28132.479389359043	0
0	46760	28132.909182577537	1
0	46761	28133.875513514304	0
0	46770	28138.553775982243	1
0	46771	28138.80330583751	0
0	46782	28143.709423447802	1
0	46787	28144.502401918929	2
0	46788	28145.668945727596	1
0	46797	28147.750829532817	2
0	46798	28149.299056167255	1
0	46801	28151.143425013411	0
0	46810	28155.432364581872	1
0	46811	28156.295161101736	0
0	46830	28164.276408671998	1
0	46831	28164.399884609129	0
0	46835	28165.666673466612	1
0	46836	28165.710488202791	0
0	46840	28165.871336233349	1
0	46841	28167.689635875817	0
0	46850	28169.550842154619	1
0	46851	28170.592901105988	0
0	46865	28174.761890113319	1
0	46866	28175.986482082806	0
0	47080	28401.285102311607	1
0	47081	28401.339402502979	0
0	47125	28430.309145301377	1
0	47132	28432.122618303868	2
0	47133	28432.871456571731	1
0	47136	28434.764783521432	0
0	47145	28441.894961855456	1
0	47146	28442.037689821665	0
0	47155	28444.872493179262	1
0	47156	28445.044924882669	0
0	47165	28446.607550488543	1
0	47166	28448.458661760073	0
0	47277	28529.964660032924	1
0	47279	28530.350177917186	2
0	47288	28534.043603031298	1
0	47296	28537.37831618428	0
0	47435	28661.109594115496	1
0	47436	28662.10645627179	0
0	47445	28664.88587552114	1
0	47446	28666.027256250369	0
0	47450	28666.320021513618	1
0	47451	28667.384320921252	0
0	47465	28673.932909351059	1
0	47471	28677.12470617618	0
0	47485	28680.529184466672	1
0	47486	28681.377074657678	0
0	47495	28684.52930367211	1
0	47496	28685.866839502059	0
0	47500	28687.006551988597	1
0	47501	28687.756830114178	0
0	47570	28728.913067315099	1
0	47571	28729.948128501933	0
0	47610	28786.327334822147	1
0	47611	28787.527009546905	0
0	47625	28793.403453367807	1
0	47626	28794.511432119089	0
0	47632	28795.28826494856	1
0	47637	28796.434404743959	2
0	47638	28797.451424627754	1
0	47641	28799.382792399268	0
0	47647	28800.073237529496	1
0	47664	28805.343710468008	2
0	47668	28807.139976687359	1
0	47676	28810.793168252895	0
0	47690	28816.341029093814	1
0	47691	28817.074249683282	0
0	47700	28820.322570032699	1
0	47701	28821.083508846703	0
0	47923	28922.763486139062	1
0	47976	28941.575484763446	0
0	47985	28943.229482233122	1
0	48032	28956.076508368371	2
0	48068	28968.582076576908	3
0	48095	28979.319103180232	2
0	48098	28981.065787793311	1
0	48101	28983.043801254767	0
0	48110	28987.50094134248	1
0	48111	28988.278406940966	0
0	48155	29009.853966241293	1
0	48161	29012.610736149481	0
0	48170	29014.179670106179	1
0	48176	29016.8505751909	0
0	48192	29020.48392147673	1
0	48197	29022.712116641066	2
0	48203	29024.783558585427	1
0	48226	29033.038178816929	0
0	48235	29037.006372761788	1
0	48236	29037.908535345946	0
0	48255	29044.651402746759	1
0	48256	29045.474248056441	0
0	48399	29109.475010307575	1
0	48441	29123.694482160635	0
0	48692	29300.433093901712	1
0	48701	29303.694387640294	0
0	48710	29307.598060117992	1
0	48711	29307.852053913762	0
0	48732	29323.301226060338	1
0	48741	29327.829268096073	0
0	48757	29331.357142057663	1
0	48761	29333.709888741246	0
0	48800	29347.13449598212	1
0	48801	29348.19701188135	0
0	48810	29351.317504735128	1
0	48811	29351.745060918508	0
0	48995	29428.316459542459	1
0	48996	29429.768857920214	0
0	49015	29435.068116110786	1
0	49016	29435.65115670473	0
0	49200	29571.001452940375	1
0	49201	29571.256429112075	0
0	49210	29574.279264045892	1
0	49211	29575.101576604253	0
0	49255	29603.947884727035	1
0	49271	29611.023900935613	0
0	49280	29613.076099161808	1
0	49281	29613.684388700128	0
0	49290	29615.674198976026	1
0	49329	29629.119655408108	2
0	49333	29630.386783856711	1
0	49336	29631.757670387066	0
0	49340	29632.100450046677	1
0	49341	29633.155115484073	0
0	49345	29633.412255875848	1
0	49346	29634.861887058615	0
0	49355	29639.143149450162	1
0	49356	29640.78328346305	0
0	49365	29643.136683087452	1
0	49366	29643.756993802085	0
0	49395	29661.085381825299	1
0	49396	29661.772864845995	0
0	49615	29780.441475355424	1
0	49616	29781.316889512576	0
0	49787	29894.660029866087	1
0	49791	29896.01125845839	0
0	49795	29897.779892427031	1
0	49801	29899.038590121313	0
0	49835	29909.408290789358	1
0	49861	29918.298177017399	0
0	49870	29920.177716491415	1
0	49872	29920.326959018802	2
0	49873	29921.654150678532	1
0	49876	29923.626602527255	0
0	49890	29926.485482419082	1
0	49892	29926.531949060767	2
0	49893	29927.906026776667	1
0	49896	29929.554509345043	0
1	16070	10007.605709117267	1
1	16071	10008.373564361638	0
1	16080	10011.032980392898	1
1	16081	10011.863338100208	0
1	16090	10013.41615707377	1
1	16091	10014.803161846889	0
1	16145	10093.738780844376	1
1	16146	10094.230905192711	0
1	16155	10095.986067738315	1
1	16156	10097.151192719668	0
1	16162	10097.778721643042	1
1	16164	10098.307454648256	2
1	16165	10098.756508833349	1
1	16169	10098.836862215896	2
1	16170	10100.583100647286	1
1	16174	10101.230856236765	2
1	16176	10101.637803963557	3
1	16177	10101.852954390824	2
1	16181	10102.412591339949	3
1	16183	10103.018375950473	4
1	16184	10103.586367867135	3
1	16188	10104.049730938065	4
1	16189	10105.57458112444	3
1	16192	10107.007883916974	2
1	16195	10108.705174132056	1
1	16198	10110.277031354784	0
1	16202	10111.160974916137	1
1	16203	10112.188483335628	0
1	16220	10120.711403316133	1
1	16221	10121.060915103643	0
1	16225	10121.50922258179	1
1	16227	10122.01035166495	2
1	16229	10122.672763317226	3
1	16230	10122.862311237766	2
1	16233	10124.591747067957	1
1	16236	10126.333131839423	0
1	16240	10126.560696149322	1
1	16242	10127.117824049902	2
1	16243	10127.5606155022	1
1	16246	10129.298163279607	0
1	16255	10130.92220650671	1
1	16256	10131.916858424628	0
1	16260	10132.515261359076	1
1	16261	10133.644031687276	0
1	16265	10134.602193204133	1
1	16266	10135.616741412701	0
1	16280	10141.017216737505	1
1	16281	10141.573390874593	0
1	16285	10141.951940104333	1
1	16286	10143.276620141557	0
1	16290	10143.432198379971	1
1	16292	10143.674334982654	2
1	16294	10144.785497399177	3
1	16295	10145.248062484479	2
1	16298	10147.234197566798	1
1	16301	10149.053189052781	0
1	16305	10150.318842510378	1
1	16306	10150.529482780537	0
1	16310	10151.137661559539	1
1	16312	10151.156592968098	2
1	16313	10151.756055338076	1
1	16316	10153.251514961152	0
1	16320	10153.31136719801	1
1	16321	10154.544051235309	0
1	16325	10154.877697457562	1
1	16326	10156.158459182223	0
1	16340	10165.58025023161	1
1	16341	10165.822891743001	0
1	16350	10168.11781063159	1
1	16352	10168.810413866492	2
1	16353	10169.131493689757	1
1	16356	10170.802914536636	0
1	16360	10171.386085429094	1
1	16361	10172.233185554932	0
1	16365	10173.094593133066	1
1	16366	10173.453974486592	0
1	16370	10174.272030770225	1
1	16371	10175.139131575341	0
1	16375	10176.539176259747	1
1	16376	10176.864306167031	0
1	16385	10179.529558700548	1
1	16386	10180.917369620135	0
1	16395	10183.301972182407	1
1	16396	10183.932946119255	0
1	16450	10221.36532257906	1
1	16451	10223.032013671386	0
1	16455	10224.563494247896	1
1	16456	10224.998676826159	0
1	16470	10258.697127198275	1
1	16471	10260.481812518954	0
1	16505	10280.165590630678	1
1	16506	10281.674008412033	0
1	16510	10282.342795203569	1
1	16511	10283.379279172912	0
1	16520	10287.300606502189	1
1	16521	10288.320741737012	0
1	16525	10289.204270239904	1
1	16526	10289.872266711604	0
1	16530	10291.037494529904	1
1	16531	10291.353936165136	0
1	16580	10330.687356893184	1
1	16581	10331.214886366125	0
1	16590	10334.000729421068	1
1	16591	10335.479491927012	0
1	16595	10337.042183689685	1
1	16596	10337.453066158577	0
1	16600	10337.756397438832	1
1	16601	10338.667517514064	0
1	16605	10339.793523539541	1
1	16606	10340.432929001286	0
1	16625	10352.556044857906	1
1	16626	10353.056604069452	0
1	16665	10380.180707354301	1
1	16668	10381.472707352218	0
1	16672	10381.693215689526	1
1	16673	10383.080287522626	0
1	16685	10387.316456834213	1
1	16686	10388.436186380056	0
1	16690	10388.85462583075	1
1	16691	10390.071353773144	0
1	16697	10390.253270976601	1
1	16699	10390.684072141106	2
1	16700	10391.555166666512	1
1	16704	10392.368198830773	2
1	16705	10393.06164742161	1
1	16709	10393.203459170989	2
1	16710	10394.938856395636	1
1	16713	10396.185620641638	0
1	16720	10398.361050861693	1
1	16721	10399.479720668052	0
1	16725	10399.787694176237	1
1	16728	10401.351918343571	0
1	16732	10402.833335005389	1
1	16733	10403.176599341747	0
1	16750	10414.377104213064	1
1	16751	10415.48196609586	0
1	16765	10434.661743052911	1
1	16766	10436.483457582184	0
1	16770	10436.976759363627	1
1	16773	10438.35664562557	0
1	16777	10438.421407401481	1
1	16780	10439.777047542037	0
1	16784	10441.132773635295	1
1	16785	10441.740963447207	0
1	16835	10488.120966044649	1
1	16836	10489.422844440298	0
1	16885	10535.97615827977	1
1	16886	10537.596124375454	0
1	16895	10544.403163286117	1
1	16896	10545.33607626101	0
1	16925	10577.568152640824	1
1	16927	10577.853183947046	2
1	16928	10578.111292782571	1
1	16932	10578.198337056411	2
1	16934	10579.316511686944	3
1	16935	10579.424351197254	2
1	16939	10579.779477478916	3
1	16940	10580.660057899688	2
1	16944	10581.620552838148	3
1	16945	10582.269875557867	2
1	16949	10583.080456447852	3
1	16950	10583.498229129573	2
1	16954	10584.486841858881	3
1	16955	10584.801195769718	2
1	16959	10584.924660307386	3
1	16960	10586.356300654037	2
1	16963	10587.934669088906	1
1	16967	10589.373887463072	2
1	16968	10589.907140401526	1
1	16972	10590.399328679083	2
1	16973	10591.693241735137	1
1	16977	10592.25377168833	2
1	16979	10592.61066660015	3
1	16980	10593.583552214651	2
1	16984	10594.202277437494	3
1	16985	10595.280159604325	2
1	16989	10595.360441982313	3
1	16992	10596.749026627242	2
1	16995	10598.117199836634	1
1	16999	10599.090025349747	2
1	17000	10599.331494924389	1
1	17004	10599.703475088263	2
1	17005	10601.291966299862	1
1	17009	10601.426416085384	2
1	17012	10602.921205601245	1
1	17016	10603.405423906615	2
1	17018	10603.532191909748	3
1	17019	10604.737992878035	2
1	17023	10605.787316165366	3
1	17024	10606.143862247244	2
1	17027	10607.784784076699	1
1	17030	10609.768933628649	0
1	17070	10623.791549625885	1
1	17071	10624.930146310253	0
1	17080	10627.330563960048	1
1	17081	10629.024021538256	0
1	17110	10643.158461277065	1
1	17111	10644.493396951197	0
1	17135	10653.224461293171	1
1	17136	10654.84779741688	0
1	17165	10672.753007139334	1
1	17166	10673.328291128466	0
1	17175	10676.753153782676	1
1	17176	10676.776972606865	0
1	17210	10697.93853422191	1
1	17211	10699.147685200013	0
1	17225	10704.557625312831	1
1	17226	10704.722653215994	0
1	17250	10718.428788405925	1
1	17251	10718.853118895813	0
1	17265	10725.192147938347	1
1	17266	10725.270988500508	0
1	17270	10726.114122955843	1
1	17271	10726.508879602531	0
1	17275	10727.297649571572	1
1	17277	10727.448811942565	2
1	17278	10728.05499151984	1
1	17282	10728.834196322452	2
1	17283	10729.710792106406	1
1	17287	10730.161927146486	2
1	17288	10731.603341984392	1
1	17291	10733.575863400304	0
1	17295	10734.094648923175	1
1	17296	10734.921048000471	0
1	17320	10754.976747413747	1
1	17321	10756.427642317239	0
1	17335	10761.991603780111	1
1	17337	10763.231737945447	2
1	17338	10763.342979193576	1
1	17341	10765.156938143917	0
1	17350	10768.975942954084	1
1	17351	10770.030800769183	0
1	17375	10786.122441655542	1
1	17376	10786.46032374006	0
1	17380	10787.852828517909	1
1	17381	10788.264907297941	0
1	17390	10790.279103998817	1
1	17392	10791.139879117835	2
1	17393	10792.005653541425	1
1	17396	10793.351447081083	0
1	17405	10796.802044427953	1
1	17407	10797.347969598964	2
1	17410	10798.025886392644	1
1	17414	10798.598836029794	2
1	17416	10799.339808289454	3
1	17417	10799.373924329182	2
1	17420	10800.909387794001	1
1	17424	10801.190466417158	2
1	17426	10801.434147111686	3
1	17427	10802.407250277376	2
1	17430	10803.895429376004	1
1	17434	10805.314757705868	2
1	17435	10805.840971851771	1
1	17438	10807.49115065099	0
1	17442	10807.818058164916	1
1	17444	10808.216937165399	2
1	17445	10809.265138259579	1
1	17449	10810.528776669103	2
1	17450	10811.197863960501	1
1	17454	10812.166698373814	2
1	17455	10812.909978286412	1
1	17459	10813.1454144455	2
1	17461	10813.613399355269	3
1	17462	10814.558413509887	2
1	17466	10814.84621384933	3
1	17467	10816.185075522263	2
1	17470	10817.729938829367	1
1	17474	10817.973606960499	2
1	17475	10818.94577654158	1
1	17479	10819.618697921003	2
1	17480	10820.925234450076	1
1	17484	10822.254953732108	2
1	17485	10822.781045930881	1
1	17489	10823.914454698456	2
1	17490	10824.290965588625	1
1	17493	10825.934825464945	0
1	17500	10828.114861848531	1
1	17501	10829.420080610227	0
1	17535	10843.852418101368	1
1	17536	10844.569269685805	0
1	17555	10856.495876316279	1
1	17557	10856.982441184984	2
1	17558	10858.340423725632	1
1	17561	10860.164038370077	0
1	17565	10860.722729114979	1
1	17566	10861.687081950617	0
1	17580	10868.446821928194	1
1	17581	10869.111458947915	0
1	17585	10869.618062264292	1
1	17586	10871.078684191625	0
1	17590	10871.25563864515	1
1	17591	10872.76726463906	0
1	17620	10893.982823748621	1
1	17622	10894.009610505935	2
1	17623	10894.922979687067	1
1	17626	10896.123099112423	0
1	17635	10899.329118091201	1
1	17637	10899.707891743946	2
1	17638	10900.447785880647	1
1	17642	10901.312100289683	2
1	17643	10902.124355586662	1
1	17647	10902.804917095074	2
1	17649	10903.563307692549	3
1	17650	10904.102604913383	2
1	17653	10905.344562666907	1
1	17657	10906.139977562022	2
1	17658	10906.655741298056	1
1	17662	10906.71690601808	2
1	17664	10907.201616537416	3
1	17665	10907.954342103048	2
1	17669	10908.637380853052	3
1	17671	10908.711516643838	4
1	17674	10909.545992567247	3
1	17677	10910.851694232268	2
1	17680	10912.593972809655	1
1	17684	10912.710435392353	2
1	17685	10914.198855976989	1
1	17688	10915.664774980811	0
1	17695	10917.986671640231	1
1	17696	10918.859337661831	0
1	17717	10927.422754027537	1
1	17718	10928.370731531457	0
1	17722	10929.149132249111	1
1	17723	10929.91275938619	0
1	17727	10930.019153886843	1
1	17728	10931.174763949402	0
1	17740	10936.491395559009	1
1	17743	10937.820599408872	0
1	17747	10937.866594843186	1
1	17748	10939.650324969604	0
1	17755	10941.099093321086	1
1	17757	10942.131827866171	2
1	17758	10942.722035579062	1
1	17761	10944.700921003572	0
1	17767	10945.153021831393	1
1	17770	10946.600490957736	0
1	17774	10947.496756871707	1
1	17779	10948.58225001195	0
1	17783	10949.979215078112	1
1	17785	10950.316901217119	2
1	17786	10950.453542555175	1
1	17789	10952.311979001253	0
1	17793	10953.37799498009	1
1	17796	10954.048314958676	0
1	17800	10955.182494767021	1
1	17801	10955.487973257951	0
1	17805	10956.363917094585	1
1	17807	10956.873313912754	2
1	17808	10956.913545308128	1
1	17811	10958.458668837376	0
1	17815	10958.751700161698	1
1	17816	10959.991530906648	0
1	17832	10967.416779835152	1
1	17833	10967.43774966845	0
1	17837	10968.485564505461	1
1	17838	10968.816382133641	0
1	17842	10968.894713373186	1
1	17843	10970.556254813314	0
1	17895	11001.814145703386	1
1	17896	11002.80199680369	0
1	17905	11006.191159511916	1
1	17907	11007.184985730653	2
1	17908	11007.268527544531	1
1	17912	11008.126422275927	2
1	17913	11008.792712281886	1
1	17918	11010.679791213627	0
1	17922	11011.724628358934	1
1	17923	11012.295152267682	0
1	17930	11014.693946097115	1
1	17931	11015.959768684449	0
1	17940	11018.233351635893	1
1	17941	11019.593767364377	0
1	17995	11055.154109102535	1
1	17996	11055.248544916497	0
1	18000	11056.499129514474	1
1	18001	11056.756628766829	0
1	18020	11069.418742732394	1
1	18021	11070.759163617462	0
1	18025	11071.05498369	1
1	18026	11072.227544917472	0
1	18030	11073.859562060365	1
1	18031	11074.162872750804	0
1	18037	11074.639281808902	1
1	18038	11075.952702085979	0
1	18060	11089.349323626055	1
1	18061	11089.719478186234	0
1	18070	11092.21646220517	1
1	18072	11092.885603156952	2
1	18073	11093.339531320906	1
1	18076	11094.906404257766	0
1	18100	11118.098351479364	1
1	18101	11119.129893743505	0
1	18110	11122.796421670394	1
1	18111	11123.566959886954	0
1	18125	11147.503963880634	1
1	18126	11147.930465071	0
1	18135	11173.844493623393	1
1	18137	11173.995464154817	2
1	18138	11174.034993418661	1
1	18142	11174.711149040921	2
1	18144	11174.85952297489	3
1	18145	11175.65225411242	2
1	18148	11177.293549509702	1
1	18151	11179.153369874118	0
1	18155	11180.235729735797	1
1	18156	11180.559066237865	0
1	18182	11191.301203234687	1
1	18183	11192.670691696032	0
1	18192	11194.162408759424	1
1	18193	11195.407844032943	0
1	18197	11196.280785707861	1
1	18198	11196.653422650359	0
1	18205	11198.363825205958	1
1	18207	11198.367437605155	2
1	18210	11199.939075563698	1
1	18213	11201.253777947686	0
1	18270	11249.479460337647	1
1	18271	11250.11091247254	0
1	18290	11262.99210279609	1
1	18291	11264.790918626343	0
1	18300	11268.434024603897	1
1	18301	11269.362200086449	0
1	18305	11269.838056537539	1
1	18306	11270.801427809034	0
1	18310	11271.209894204927	1
1	18312	11272.405889440718	2
1	18313	11272.735871206668	1
1	18316	11274.296493567039	0
1	18320	11274.310409423801	1
1	18322	11275.413010460976	2
1	18323	11275.519307208133	1
1	18326	11277.008163335805	0
1	18332	11277.393522385099	1
1	18334	11277.713014281432	2
1	18335	11278.222183486705	1
1	18338	11279.60332745265	0
1	18347	11281.840330526456	1
1	18350	11282.795099207459	0
1	18360	11286.02313670526	1
1	18363	11287.741255475654	0
1	18367	11287.745237317408	1
1	18368	11289.155981228015	0
1	18374	11290.419250160395	1
1	18375	11291.045532463564	0
1	18382	11293.12942037995	1
1	18383	11294.207771165928	0
1	18387	11294.333302030607	1
1	18389	11294.340787471046	2
1	18390	11295.424379808901	1
1	18393	11297.201198449245	0
1	18400	11299.842237906789	1
1	18401	11300.708336286134	0
1	18405	11301.035296583114	1
1	18408	11302.603009934238	0
1	18412	11302.702678084263	1
1	18413	11304.165213821902	0
1	18417	11304.715178697071	1
1	18420	11305.407108894064	0
1	18424	11305.450679862191	1
1	18425	11307.003478503673	0
1	18432	11309.443311238464	1
1	18433	11310.474379347897	0
1	18440	11313.37679403234	1
1	18441	11313.442248483075	0
1	18452	11315.859663958097	1
1	18453	11316.949743811665	0
1	18457	11317.575205350682	1
1	18458	11318.283262607334	0
1	18480	11329.8861198502	1
1	18481	11331.493616523158	0
1	18487	11332.389890736672	1
1	18488	11333.164399556566	0
1	18492	11334.895860314906	1
1	18493	11335.04923658793	0
1	18505	11339.854456481076	1
1	18506	11340.41301214215	0
1	18540	11361.363456247925	1
1	18541	11361.678483980992	0
1	18550	11363.933621679257	1
1	18551	11364.718150189801	0
1	18555	11365.444075313892	1
1	18556	11366.204229153602	0
1	18560	11366.505888152729	1
1	18562	11366.734808794936	2
1	18563	11367.810498538336	1
1	18567	11369.301131119078	2
1	18568	11369.750507896302	1
1	18571	11371.483437981551	0
1	18575	11371.759295642399	1
1	18576	11373.245012347122	0
1	18580	11373.47814117401	1
1	18581	11374.876033952927	0
1	18585	11374.933785095308	1
1	18586	11376.720628477355	0
1	18590	11377.889658541675	1
1	18591	11378.257373987233	0
1	18595	11378.630255245553	1
1	18597	11379.187824006089	2
1	18598	11379.590987704044	1
1	18602	11381.18363338828	2
1	18604	11381.185679183026	3
1	18605	11381.576791616997	2
1	18608	11383.46766851349	1
1	18612	11384.433108932223	2
1	18613	11385.464797196074	1
1	18617	11386.334519626061	2
1	18618	11387.117115037239	1
1	18621	11388.750883543401	0
1	18630	11391.001544081105	1
1	18632	11391.705807994967	2
1	18633	11392.334966905383	1
1	18636	11394.295965774512	0
1	18645	11396.7766116047	1
1	18646	11397.482555540819	0
1	18650	11397.758276951358	1
1	18651	11398.842843167652	0
1	18675	11408.773433570986	1
1	18677	11409.059148155623	2
1	18679	11409.526735573248	3
1	18680	11409.741095346012	2
1	18683	11411.388065303848	1
1	18687	11411.862164132994	2
1	18691	11412.817800771135	3
1	18692	11412.97631717267	2
1	18695	11414.374517661133	1
1	18699	11414.388999624282	2
1	18700	11415.907187711061	1
1	18704	11416.159792534804	2
1	18705	11417.287751786769	1
1	18708	11418.607997175851	0
1	18745	11443.430032207006	1
1	18746	11444.805514003014	0
1	18760	11458.846992943191	1
1	18761	11459.999623966386	0
1	18770	11464.448718354828	1
1	18771	11464.537853546715	0
1	18785	11469.574878379392	1
1	18786	11469.700563550649	0
1	18795	11482.392246606854	1
1	18796	11483.531642253079	0
1	18810	11488.951960961109	1
1	18811	11489.305339847893	0
1	18820	11491.3087485695	1
1	18821	11492.120610798987	0
1	18830	11494.811873715209	1
1	18831	11496.00867043377	0
1	18840	11500.204441162236	1
1	18841	11500.258062596485	0
1	18850	11502.97959980944	1
1	18852	11503.856096078962	2
1	18853	11504.370753420085	1
1	18856	11506.104170529858	0
1	18860	11506.441924631805	1
1	18861	11507.381464698479	0
1	18870	11508.742057657282	1
1	18871	11510.286820435967	0
1	18875	11511.835845853176	1
1	18876	11512.164879290085	0
1	18920	11550.922440242136	1
1	18922	11551.560351113658	2
1	18923	11552.085660719001	1
1	18927	11553.520531404629	2
1	18928	11553.685133718387	1
1	18931	11555.105849561714	0
1	18955	11602.454663029904	1
1	18957	11602.578541549463	2
1	18958	11603.124167547864	1
1	18961	11604.58030988418	0
1	18965	11605.485637671114	1
1	18966	11606.200492242467	0
1	18970	11606.65580961013	1
1	18972	11606.711677810762	2
1	18974	11607.661188307644	3
1	18975	11607.9299528328	2
1	18978	11609.917105380189	1
1	18982	11611.067756653644	2
1	18983	11611.693390219774	1
1	18987	11612.372193532769	2
1	18988	11613.627853288058	1
1	18991	11615.475559909943	0
1	18995	11616.736539835712	1
1	18996	11616.939044724706	0
1	19030	11655.443256889323	1
1	19031	11657.19630062729	0
1	19045	11668.03305213094	1
1	19046	11669.087610925671	0
1	19050	11669.332300538435	1
1	19051	11670.894904676762	0
1	19055	11671.885326312903	1
1	19056	11672.484575372499	0
1	19060	11672.58189902537	1
1	19061	11673.704186486763	0
1	19095	11708.494335089656	1
1	19096	11709.274483487696	0
1	19105	11711.155734688341	1
1	19106	11712.6880678446	0
1	19110	11712.739445326006	1
1	19111	11713.899830773563	0
1	19135	11734.095477077823	1
1	19137	11734.644625703352	2
1	19138	11735.458145557916	1
1	19142	11736.409972375752	2
1	19143	11736.850196476108	1
1	19147	11737.326448862515	2
1	19148	11738.364316841228	1
1	19151	11740.167279477244	0
1	19155	11740.870736391458	1
1	19156	11741.805662810256	0
1	19175	11778.764324798948	1
1	19176	11779.192683458449	0
1	19210	11809.286693122349	1
1	19211	11810.276587828703	0
1	19230	11827.727097884939	1
1	19231	11828.637913445141	0
1	19237	11829.445329244699	1
1	19238	11829.908849373776	0
1	19242	11830.078531233843	1
1	19243	11831.264575169179	0
1	19255	11834.603198193076	1
1	19258	11835.60836503854	0
1	19262	11836.826099700116	1
1	19263	11837.275646579582	0
1	19267	11837.944297938563	1
1	19269	11838.405346189182	2
1	19271	11838.423865116962	3
1	19272	11839.146625755112	2
1	19276	11839.835759598477	3
1	19277	11841.050134032163	2
1	19281	11841.093723338735	3
1	19283	11841.334016063083	4
1	19284	11842.992768618594	3
1	19288	11844.257692015346	4
1	19289	11844.50382843608	3
1	19292	11846.159443316925	2
1	19296	11846.542667037207	3
1	19297	11847.774390795957	2
1	19300	11849.492375903707	1
1	19304	11849.754871455771	2
1	19306	11850.265123383846	3
1	19307	11851.177473727744	2
1	19310	11852.478013998587	1
1	19314	11852.629961151722	2
1	19315	11853.795502043646	1
1	19319	11854.05745651705	2
1	19321	11854.219055576729	3
1	19322	11855.410901158061	2
1	19325	11856.65266086733	1
1	19328	11858.613411451262	0
1	19335	11860.729067881467	1
1	19338	11861.769002692719	0
1	19345	11864.923168830062	1
1	19346	11865.339893733469	0
1	19355	11867.804783343179	1
1	19356	11869.690910556604	0
1	19365	11874.937074491203	1
1	19366	11875.010279843429	0
1	19370	11875.024196994781	1
1	19371	11876.954948380994	0
1	19375	11877.092365251391	1
1	19377	11878.234770176894	2
1	19378	11878.882717979173	1
1	19381	11880.581703770007	0
1	19400	11906.66483347475	1
1	19401	11907.040293199819	0
1	19410	11909.698850138004	1
1	19411	11911.03859403965	0
1	19415	11911.523240517953	1
1	19416	11912.777760761538	0
1	19420	11913.451821303611	1
1	19421	11914.359765243092	0
1	19425	11915.311701440579	1
1	19426	11916.103380375476	0
1	19435	11918.899533936325	1
1	19436	11919.740358165763	0
1	19440	11919.830156882201	1
1	19441	11920.982549298294	0
1	19445	11921.031449131524	1
1	19446	11922.973793362565	0
1	19490	11957.14350157089	1
1	19492	11957.351304669411	2
1	19493	11957.52915570463	1
1	19497	11958.626215757335	2
1	19498	11958.939879448777	1
1	19501	11960.407605640097	0
1	19540	11993.206923690787	1
1	19541	11993.919960441962	0
1	19545	11994.918983780844	1
1	19546	11995.353200218044	0
1	19555	11998.001719400716	1
1	19556	11998.56323832307	0
1	19565	12000.43122383875	1
1	19566	12001.664680939503	0
1	19572	12002.263266062616	1
1	19573	12003.392271282114	0
1	19577	12003.948778322906	1
1	19578	12005.30958820913	0
1	19615	12027.667163405005	1
1	19616	12027.975804767902	0
1	19620	12028.367843271698	1
1	19621	12029.252649458642	0
1	19640	12037.383817239781	1
1	19642	12037.592884965107	2
1	19643	12038.253994062378	1
1	19647	12039.291339459657	2
1	19649	12039.592044498097	3
1	19650	12040.145416125118	2
1	19653	12041.498893414646	1
1	19657	12041.640240555264	2
1	19658	12042.789468240387	1
1	19662	12044.054848988093	2
1	19663	12044.701742872059	1
1	19666	12045.982641616858	0
1	19670	12046.689621476307	1
1	19671	12047.418769760824	0
1	19685	12056.895629982309	1
1	19686	12057.860741700323	0
1	19700	12064.632883577707	1
1	19701	12065.675013026169	0
1	19795	12152.149322582758	1
1	19796	12153.503848118077	0
1	19800	12154.663860787656	1
1	19801	12155.258659105676	0
1	19825	12166.827680909507	1
1	19826	12167.721142851678	0
1	19842	12173.329614014699	1
1	19843	12173.852784411511	0
1	19847	12174.788420267795	1
1	19848	12175.523287212378	0
1	19852	12175.959139240854	1
1	19855	12177.145630685328	0
1	19859	12177.546274145041	1
1	19860	12178.397248628451	0
1	19885	12194.281732857397	1
1	19886	12194.361652505427	0
1	19905	12213.647950620576	1
1	19906	12214.811772398143	0
1	19945	12245.842866956046	1
1	19946	12247.111388337309	0
1	19950	12247.85298833571	1
1	19952	12247.963712053283	2
1	19953	12249.011260115983	1
1	19957	12249.598997161957	2
1	19958	12250.328871591086	1
1	19961	12252.14961663566	0
1	19965	12252.255002331481	1
1	19967	12253.228817169587	2
1	19968	12253.655747529375	1
1	19972	12254.863727913951	2
1	19973	12255.177358170668	1
1	19976	12257.095475009898	0
1	19980	12257.887469266528	1
1	19981	12258.740811589988	0
1	19985	12260.08720882793	1
1	19988	12260.352295929449	0
1	20010	12269.060160978153	1
1	20011	12270.015800329304	0
1	20035	12282.117298093152	1
1	20036	12282.280149633654	0
1	20055	12289.785139176882	1
1	20056	12290.473029981397	0
1	20070	12295.989605795544	1
1	20072	12296.32563522032	2
1	20073	12296.842934114814	1
1	20076	12298.182282658994	0
1	20117	12321.966771246594	1
1	20119	12322.482273106165	2
1	20121	12322.546587993853	3
1	20122	12322.807547174693	2
1	20125	12324.252285074555	1
1	20129	12325.423289610785	2
1	20130	12325.882983731218	1
1	20133	12327.247342303135	0
1	20137	12327.378698537569	1
1	20138	12328.598515406177	0
1	20142	12329.389267195919	1
1	20143	12330.293189765066	0
1	20152	12332.702204122824	1
1	20153	12333.885962418765	0
1	20157	12334.39495475819	1
1	20160	12335.220332543478	0
1	20164	12335.349640932329	1
1	20165	12336.816928573996	0
1	20190	12356.69675286588	1
1	20191	12357.23227103014	0
1	20210	12363.655729597569	1
1	20211	12364.568621864792	0
1	20225	12368.663446040507	1
1	20226	12370.264670068593	0
1	20235	12374.454774792428	1
1	20236	12375.54915403722	0
1	20245	12378.307979295746	1
1	20246	12378.746373393742	0
1	20250	12378.793891249892	1
1	20251	12380.663077928854	0
1	20275	12406.073751730937	1
1	20276	12406.985141113415	0
1	20285	12409.180652236133	1
1	20286	12410.69962423557	0
1	20315	12433.349702510293	1
1	20316	12434.173188016989	0
1	20345	12459.41679006235	1
1	20347	12460.015665445651	2
1	20348	12460.609682097658	1
1	20351	12462.053411359339	0
1	20360	12465.706795452066	1
1	20361	12466.059595916372	0
1	20365	12466.094725875311	1
1	20366	12467.983082651485	0
1	20375	12472.768630352055	1
1	20376	12473.044697935699	0
1	20390	12503.98227485964	1
1	20391	12504.83958705761	0
1	20400	12517.737606531704	1
1	20402	12517.748031564761	2
1	20403	12517.856933183096	1
1	20407	12519.283947944817	2
1	20408	12519.440917487502	1
1	20412	12519.913002699149	2
1	20413	12520.700566538483	1
1	20417	12520.777234685073	2
1	20419	12522.130016170437	3
1	20420	12522.628098690383	2
1	20423	12524.216165567808	1
1	20427	12524.696718302307	2
1	20428	12526.009607109115	1
1	20432	12527.474070866122	2
1	20433	12527.580678513334	1
1	20436	12529.332098478698	0
1	20440	12530.013939198893	1
1	20442	12530.602533469394	2
1	20443	12530.767489797682	1
1	20447	12530.779430725768	2
1	20448	12532.261841620379	1
1	20452	12532.713320269041	2
1	20453	12533.95732680174	1
1	20456	12535.262730227657	0
1	20465	12540.90445823321	1
1	20466	12541.742700077325	0
1	20495	12571.188159253452	1
1	20496	12572.149145499673	0
1	20515	12582.101138954212	1
1	20516	12583.114878542327	0
1	20520	12583.144974612165	1
1	20521	12585.085864011735	0
1	20525	12585.930822220903	1
1	20526	12586.349059691072	0
1	20540	12592.652939132134	1
1	20541	12593.195081099161	0
1	20585	12637.253826500302	1
1	20586	12638.438647995343	0
1	20635	12708.621470074924	1
1	20637	12708.719304125962	2
1	20638	12709.594542934976	1
1	20643	12710.989259979732	0
1	20647	12710.995384468798	1
1	20648	12712.756426681436	0
1	20659	12715.416371837589	1
1	20660	12716.388408602073	0
1	20675	12723.694334349919	1
1	20678	12724.399086903317	0
1	20682	12724.403657442497	1
1	20685	12725.637774225978	0
1	20691	12727.113555186296	1
1	20692	12727.136573516114	0
1	20699	12728.711438031314	1
1	20700	12730.181474555007	0
1	20715	12736.047540074022	1
1	20716	12736.65889095301	0
1	20725	12738.713751616239	1
1	20726	12740.398532257324	0
1	20755	12782.862720495729	1
1	20756	12783.98891543262	0
1	20765	12785.941411294855	1
1	20766	12787.0030667251	0
1	20775	12789.295811331106	1
1	20776	12791.135959979252	0
1	20805	12809.283432418175	1
1	20807	12809.582004677727	2
1	20810	12810.284228665964	1
1	20813	12811.562030962319	0
1	20817	12811.663975886607	1
1	20818	12813.464044965827	0
1	20827	12815.57193697438	1
1	20828	12816.584820790053	0
1	20835	12819.573047685148	1
1	20836	12819.726315966085	0
1	20920	12865.034169761916	1
1	20921	12866.072998003707	0
1	20945	12886.713801250139	1
1	20946	12888.258966866951	0
1	20950	12888.658001530285	1
1	20951	12890.050128317881	0
1	20955	12890.880997004407	1
1	20956	12891.38310777403	0
1	20960	12891.885397620436	1
1	20961	12893.227286134172	0
1	20965	12894.550838475889	1
1	20966	12894.640945865284	0
1	20980	12902.185708274809	1
1	20981	12903.219323829907	0
1	20985	12903.532995215493	1
1	20987	12903.584086488131	2
1	20988	12904.437132404345	1
1	20992	12904.687080027349	2
1	20994	12904.875621644004	3
1	20995	12905.750697025443	2
1	20999	12906.13382792219	3
1	21000	12907.522119660276	2
1	21004	12907.882788091989	3
1	21005	12909.073368283148	2
1	21009	12910.02591333306	3
1	21010	12910.659687836814	2
1	21013	12911.89321546198	1
1	21017	12912.051225424136	2
1	21018	12913.440067546974	1
1	21021	12915.124939123328	0
1	21030	12918.702751470067	1
1	21031	12919.567807703159	0
1	21055	12941.155057590729	1
1	21056	12942.724750530966	0
1	21060	12943.022697925011	1
1	21061	12943.96909730161	0
1	21090	12971.374864954228	1
1	21091	12972.673881294394	0
1	21095	12972.812646193015	1
1	21096	12973.971185301619	0
1	21100	12974.058377600792	1
1	21102	12974.546260507127	2
1	21104	12975.47724798761	3
1	21105	12975.961600486191	2
1	21109	12975.992541830946	3
1	21111	12976.813887641413	4
1	21112	12977.608910427058	3
1	21115	12978.855189741405	2
1	21119	12979.484149410447	3
1	21121	12979.638312418263	4
1	21122	12980.515107655714	3
1	21126	12980.86015544026	4
1	21128	12981.578154535295	5
1	21129	12982.227392544786	4
1	21133	12983.510988405474	5
1	21134	12983.721606276373	4
1	21137	12985.42439573128	3
1	21141	12986.094084077104	4
1	21143	12986.585133207341	5
1	21144	12987.143024511638	4
1	21148	12988.921419266741	5
1	21149	12989.085104438293	4
1	21152	12990.693753867227	3
1	21156	12991.874370413805	4
1	21157	12992.490256884325	3
1	21161	12993.531247233232	4
1	21162	12994.226981282051	3
1	21166	12995.466982491732	4
1	21168	12995.720871386991	5
1	21169	12995.881216884966	4
1	21173	12996.275900204069	5
1	21174	12997.773042954507	4
1	21178	12999.008545152672	5
1	21179	12999.311252586174	4
1	21183	12999.528365874975	5
1	21185	13001.012970171737	6
1	21186	13001.026378493945	5
1	21190	13002.080975861075	6
1	21191	13002.327208609695	5
1	21195	13002.502829060772	6
1	21196	13004.285120518135	5
1	21200	13005.028913544554	6
1	21201	13005.95703305267	5
1	21204	13007.669633926267	4
1	21208	13008.284698116935	5
1	21210	13008.294082559074	6
1	21211	13009.536126204582	5
1	21216	13011.082351711581	4
1	21220	13011.174682295418	5
1	21221	13012.999617115411	4
1	21225	13013.4548104273	5
1	21226	13014.494101427126	4
1	21230	13015.93180161777	5
1	21231	13016.064425977881	4
1	21235	13016.575003543163	5
1	21236	13017.288544904443	4
1	21240	13017.610529369464	5
1	21242	13018.862255385729	6
1	21243	13019.257880722547	5
1	21246	13020.702305293271	4
1	21249	13022.634883843736	3
1	21253	13023.272076162989	4
1	21254	13024.392514348217	3
1	21257	13026.33499205988	2
1	21260	13028.13261486739	1
1	21264	13028.172313405894	2
1	21266	13029.720756669837	3
1	21267	13029.893760254421	2
1	21270	13031.517324747518	1
1	21274	13031.780361491333	2
1	21276	13032.696604433971	3
1	21277	13033.376896166057	2
1	21281	13034.236504948189	3
1	21282	13034.737348629535	2
1	21286	13035.512147148447	3
1	21287	13035.999062478916	2
1	21291	13036.082246391231	3
1	21292	13037.274206899853	2
1	21295	13038.658151582071	1
1	21298	13039.997430436314	0
1	21310	13044.028615909089	1
1	21311	13045.102527308752	0
1	21335	13104.97044796287	1
1	21336	13106.048890816516	0
1	21345	13110.52462681397	1
1	21346	13111.505764390153	0
1	21350	13113.114052896514	1
1	21351	13113.213508366604	0
1	21370	13126.677269969419	1
1	21372	13126.934805738149	2
1	21373	13127.661136733341	1
1	21376	13129.620209844011	0
1	21380	13130.397025352239	1
1	21381	13131.029423509698	0
1	21385	13131.768561191538	1
1	21386	13132.746197528924	0
1	21390	13132.840723277355	1
1	21391	13134.104007760222	0
1	21395	13134.832351713704	1
1	21396	13135.6128939904	0
1	21400	13136.222556378874	1
1	21401	13136.972216402898	0
1	21420	13147.566922254629	1
1	21422	13148.315905542578	2
1	21424	13149.261265471153	3
1	21425	13149.299218532239	2
1	21428	13150.517946044897	1
1	21432	13151.229612051172	2
1	21433	13152.071715858748	1
1	21437	13152.18809006894	2
1	21439	13152.713204106655	3
1	21440	13153.880552935583	2
1	21444	13154.561812845956	3
1	21445	13155.311954031867	2
1	21449	13155.676240790706	3
1	21450	13157.096142378059	2
1	21454	13158.679714069674	3
1	21455	13158.763130664435	2
1	21458	13160.588126430829	1
1	21461	13162.17334873153	0
1	21465	13162.45175177257	1
1	21467	13163.065786929698	2
1	21469	13163.460288330321	3
1	21470	13164.136485284549	2
1	21474	13165.069829521796	3
1	21475	13165.991620909777	2
1	21479	13167.286244006903	3
1	21480	13167.652195463311	2
1	21483	13169.068279611114	1
1	21487	13169.309748039757	2
1	21488	13171.003173445705	1
1	21491	13172.556445129197	0
1	21497	13173.552078865503	1
1	21499	13173.783421566827	2
1	21500	13174.408710434269	1
1	21504	13175.666657063797	2
1	21506	13175.97445110979	3
1	21507	13176.093593412433	2
1	21510	13177.750098302756	1
1	21514	13178.262460334213	2
1	21515	13179.371363401767	1
1	21519	13180.315411116228	2
1	21521	13180.371485987374	3
1	21522	13180.808627084624	2
1	21525	13182.413608362507	1
1	21528	13184.183399990741	0
1	21532	13184.336223769312	1
1	21534	13184.824921299288	2
1	21535	13186.131191213038	1
1	21538	13187.467419648711	0
1	21545	13189.205413446566	1
1	21547	13189.599164031813	2
1	21548	13190.324120163899	1
1	21553	13192.256379300896	0
1	21557	13193.858055882037	1
1	21558	13194.158216845412	0
1	21565	13196.405910307224	1
1	21566	13197.043880923447	0
1	21570	13197.142055614746	1
1	21571	13198.600374658388	0
1	21580	13203.224283548614	1
1	21581	13203.264733953964	0
1	21585	13203.698514684827	1
1	21586	13204.863696744669	0
1	21615	13216.296144809221	1
1	21616	13216.721947804103	0
1	21640	13227.758090197337	1
1	21641	13229.383586359223	0
1	21650	13233.232079590152	1
1	21651	13234.592838696465	0
1	21680	13249.804867274335	1
1	21681	13250.829624560384	0
1	21685	13252.45507081955	1
1	21686	13252.781693743078	0
1	21730	13274.44269306199	1
1	21732	13274.536836347433	2
1	21733	13275.384181486824	1
1	21738	13276.893534998232	0
1	21750	13281.189001776982	1
1	21751	13281.720574904802	0
1	21767	13288.667702591856	1
1	21768	13289.023609211243	0
1	21772	13289.553488091184	1
1	21774	13289.837153872162	2
1	21775	13290.748115643434	1
1	21778	13292.375419170916	0
1	21785	13293.934841866577	1
1	21786	13295.044371059299	0
1	21800	13319.23220023357	1
1	21801	13320.026634091201	0
1	21805	13320.301992833565	1
1	21806	13321.739205856683	0
1	21812	13323.334215174921	1
1	21813	13323.444363964038	0
1	21817	13323.564478731323	1
1	21819	13324.038272093422	2
1	21820	13324.772338829065	1
1	21823	13326.493930887679	0
1	21827	13327.048723583698	1
1	21828	13327.857342625285	0
1	21895	13404.51417174955	1
1	21896	13405.537821656701	0
1	21925	13428.054699472553	1
1	21926	13428.311309655853	0
1	21930	13428.389582616754	1
1	21931	13430.043510654293	0
1	21945	13447.051548858765	1
1	21946	13448.544147472589	0
1	21950	13449.358865084966	1
1	21951	13450.480875236488	0
1	21955	13450.904928974504	1
1	21957	13451.00693765433	2
1	21958	13451.82762304595	1
1	21961	13453.260110688156	0
1	21975	13458.457964951862	1
1	21976	13459.181041561008	0
1	21985	13463.530722922972	1
1	21987	13464.323593920073	2
1	21988	13464.465700555332	1
1	21991	13466.104527405761	0
1	21995	13466.301550513741	1
1	21997	13466.302897448728	2
1	21998	13467.583618127666	1
1	22002	13467.775402373835	2
[...]
8	21340	13107.764258567526	1
8	21347	13111.505764390153	2
8	21349	13113.114052896514	1
8	21356	13114.695561158385	0
8	21360	13116.015447072599	1
8	21361	13116.539745757596	0
8	21365	13118.175057552436	1
8	21366	13125.997962796289	0
8	21484	13169.068279611114	1
8	21486	13169.309748039757	0
8	21489	13171.003173445705	1
8	21496	13173.552078865503	0
8	21526	13182.413608362507	1
8	21529	13184.183399990741	2
8	21531	13184.336223769312	1
8	21533	13184.824921299288	0
8	21536	13186.131191213038	1
8	21544	13189.205413446566	0
8	21559	13194.158216845412	1
8	21562	13195.496420780365	2
8	21564	13196.405910307224	1
8	21569	13197.142055614746	0
8	21572	13198.600374658388	1
8	21576	13201.971208528619	0
8	21590	13206.451109147634	1
8	21591	13206.97280825618	0
8	21595	13208.724611164995	1
8	21601	13211.405795802737	0
8	21605	13212.985141648913	1
8	21606	13213.316333490349	0
8	21610	13214.661221814081	1
8	21611	13215.163470953899	0
8	21814	13323.444363964038	1
8	21816	13323.564478731323	0
8	21980	13460.68424685964	1
8	21981	13462.980946948864	0
8	22087	13503.855782467241	1
8	22089	13504.141641760615	0
8	22109	13510.547220570895	1
8	22113	13511.126227879107	0
8	22176	13531.487998836042	1
8	22178	13531.992201430433	0
8	22382	13657.178157034303	1
8	22384	13658.924663404066	0
8	22540	13746.118407475568	1
8	22541	13746.323825225644	0
8	22722	13896.833681357875	1
8	22724	13897.579980256516	0
8	23146	14226.240016854528	1
8	23149	14228.187800475556	2
8	23151	14228.462704665217	1
8	23153	14229.118613082797	0
8	23359	14332.625337208246	1
8	23361	14333.832956039873	0
8	23519	14404.971641074629	1
8	23523	14405.846659451195	0
8	23542	14413.272545844452	1
8	23544	14413.420787067948	0
8	23652	14470.415023491974	1
8	23659	14471.942088991049	0
8	24007	14642.298098893623	1
8	24011	14645.592033036882	0
8	24015	14647.34277147715	1
8	24016	14647.835126211565	0
8	24047	14657.86251882955	1
8	24049	14658.552305551006	0
8	24072	14665.519293056498	1
8	24074	14666.165643968212	0
8	24167	14697.548987311381	1
8	24169	14698.680071160008	0
8	24175	14701.029379500519	1
8	24176	14702.04997946525	0
8	24222	14750.042143751817	1
8	24224	14751.103615723397	0
8	24227	14751.516754342193	1
8	24231	14752.380520998049	0
8	24259	14760.784607234547	1
8	24261	14761.583155500635	0
8	24342	14795.381856384843	1
8	24344	14796.164454109231	0
8	24375	14808.986994666413	1
8	24376	14810.867632803896	0
8	24582	14938.896513340618	1
8	24584	14939.679136332455	0
8	24587	14940.17265301663	1
8	24594	14942.150651150177	0
8	24610	14947.831184389623	1
8	24614	14948.739634379992	0
8	24620	14951.211143288226	1
8	24621	14952.625436648947	0
8	24797	15049.576710617799	1
8	24799	15051.092014183506	0
8	24807	15052.757693051803	1
8	24809	15053.958946660938	0
8	24957	15166.384775846897	1
8	24959	15167.423850037084	0
8	25120	15237.428461438324	1
8	25124	15238.998067193634	0
8	25532	15475.714517221755	1
8	25534	15476.261028023887	0
8	25580	15492.425913651257	1
8	25581	15492.840770082433	0
8	25595	15497.944847433712	1
8	25599	15500.833419019371	0
8	25625	15509.542903755244	1
8	25629	15512.553480187956	0
8	25717	15551.013648495317	1
8	25719	15551.270524508135	0
8	25745	15560.078793210961	1
8	25746	15560.688391429505	0
8	25802	15591.970907404522	1
8	25804	15593.143783008135	0
8	26095	15742.222323192968	1
8	26096	15743.274435969816	0
8	26100	15744.741893693806	1
8	26101	15744.754488077963	0
8	26110	15747.705279869045	1
8	26111	15748.498961209602	0
8	26330	15934.812431044715	1
8	26331	15935.723337519278	0
8	26337	15937.096332470809	1
8	26339	15937.62766304555	0
8	26342	15938.312047466931	1
8	26344	15939.194640899099	0
8	26392	15956.928702343499	1
8	26394	15957.041729754149	0
8	26565	16041.969567260949	1
8	26566	16044.273768762206	0
8	26832	16304.568419729007	1
8	26834	16305.627551665693	0
8	26990	16375.596271910512	1
8	26991	16376.295607892357	0
8	27090	16428.10517136207	1
8	27091	16428.964479789611	0
8	27718	16853.802381287005	1
8	27720	16854.621547643001	0
8	27750	16864.134059309076	1
8	27752	16864.223747507172	0
8	27755	16865.46087336545	1
8	27762	16867.831863693142	0
8	27786	16876.19685918824	1
8	27788	16876.203822095715	0
8	27847	16902.843010175568	1
8	27851	16904.779003163951	0
8	27940	16972.891384690841	1
8	27941	16973.51333676211	0
8	28282	17181.851549294233	1
8	28284	17183.115154827627	0
8	28289	17183.38711252363	1
8	28299	17186.843834199103	0
8	29205	17740.645260290777	1
8	29206	17741.081265111207	0
8	29662	18086.181374775217	1
8	29664	18086.27613626199	0
8	29707	18099.939988118009	1
8	29715	18103.772162804163	2
8	29716	18104.871882189525	1
8	29719	18105.747185164509	0
8	29735	18112.085862918471	1
8	29736	18113.399945615168	0
8	29757	18119.83081510638	1
8	29761	18121.422880897475	0
8	29765	18123.167263887254	1
8	29766	18124.162342807147	0
8	29782	18129.219377227555	1
8	29784	18130.204321961109	0
8	29787	18130.696602462846	1
8	29789	18131.190739538495	0
8	29945	18283.509983300224	1
8	29946	18283.591260855574	0
8	29985	18300.282547393708	1
8	29991	18302.765331201944	0
8	30109	18375.23276155636	1
8	30112	18377.190574729706	2
8	30115	18378.584272329773	3
8	30116	18379.855362826034	2
8	30119	18379.999124894556	1
8	30121	18380.44534408947	0
8	30124	18381.595161923401	1
8	30126	18381.724791763455	0
8	30159	18392.922790405908	1
8	30161	18393.074020781491	0
8	30164	18394.855700425067	1
8	30169	18398.008746213516	0
8	30172	18398.390263281771	1
8	30174	18398.653897324138	0
8	30350	18508.229728550512	1
8	30351	18508.497162277117	0
8	30569	18664.894780448379	1
8	30571	18665.291988771771	0
8	30574	18666.225504165629	1
8	30576	18667.184733009645	0
8	31075	19007.143531155197	1
8	31076	19007.9962835607	0
8	31147	19035.525932582595	1
8	31154	19038.103070719033	0
8	31157	19038.839616541824	1
8	31159	19039.685162887271	0
8	31337	19120.350745801266	1
8	31341	19121.17909787404	0
8	31344	19122.002697492215	1
8	31346	19122.687873329224	0
8	31439	19185.943512277376	1
8	31442	19187.851964816708	2
8	31451	19192.585485097034	1
8	31457	19194.364060196666	2
8	31459	19195.858558257559	1
8	31461	19195.888717485677	0
8	31805	19395.852826565403	1
8	31807	19396.811665177887	0
8	31917	19435.400113635409	1
8	31919	19436.885761736125	0
8	31938	19440.700422215174	1
8	31940	19442.320371951284	0
8	31943	19442.4937643974	1
8	31945	19442.92805507548	0
8	31956	19446.806159130754	1
8	31958	19447.706146084806	0
8	31975	19451.40134491817	1
8	31977	19451.450504302186	0
8	31982	19452.81790325445	1
8	31987	19455.704846817906	0
8	32087	19504.591220288467	1
8	32091	19507.536979217755	0
8	32095	19508.819054465296	1
8	32099	19511.754553257233	0
8	32137	19523.808454095647	1
8	32141	19527.098170389327	0
8	32145	19528.549007626342	1
8	32146	19531.318822260199	0
8	32525	19713.894542124089	1
8	32526	19715.415403578788	0
8	32694	19830.958435056832	1
8	32698	19832.136115813576	0
8	32706	19834.111547965285	1
8	32708	19834.902107236563	0
8	32711	19835.767395936985	1
8	32713	19836.120846682611	0
8	32725	19839.069506418992	1
8	32727	19839.263506481705	0
8	32730	19840.434390796822	1
8	32732	19840.737672377954	0
8	32763	19851.141315860403	1
8	32766	19852.363288503614	2
8	32768	19852.568046864208	1
8	32770	19852.904364844774	0
8	33080	20014.04421826128	1
8	33081	20014.638358418702	0
8	33162	20052.624553824269	1
8	33166	20054.854564099937	0
8	33310	20143.10587655273	1
8	33316	20145.549969398974	0
8	33524	20258.329835238521	1
8	33526	20259.126919318789	0
8	33651	20308.80364252522	1
8	33655	20310.463425819777	0
8	33752	20348.779703229953	1
8	33756	20350.898821862452	0
8	33860	20432.499001590209	1
8	33861	20435.868652568757	0
8	34020	20539.023607816979	1
8	34022	20540.133553418524	0
8	34025	20540.892503556296	1
8	34027	20541.730156208802	0
8	34113	20571.053075364291	1
8	34118	20573.089820309258	0
8	34189	20598.223911470419	1
8	34191	20598.537576634901	0
8	34212	20606.879433531931	1
8	34214	20607.882619714007	0
8	34300	20646.435825179283	1
8	34301	20647.344379876757	0
8	34320	20655.666530880641	1
8	34321	20657.124769147853	0
8	34680	20864.118640658686	1
8	34681	20864.166647978996	0
8	34765	20899.193893052027	1
8	34766	20900.886345712524	0
8	34770	20902.224376540314	1
8	34771	20902.24342992004	0
8	35190	21219.025739898043	1
8	35195	21221.253073722056	2
8	35196	21221.387755986192	1
8	35199	21221.998118145044	0
8	35202	21222.905032905639	1
8	35204	21224.409931208598	0
8	35235	21242.817340482534	1
8	35236	21243.432528707906	0
8	35245	21246.233624838441	1
8	35249	21247.234830276015	0
8	35252	21247.993799704842	1
8	35254	21248.173206980272	0
8	35480	21399.899419655584	1
8	35484	21404.202152435121	0
8	35627	21528.467172400137	1
8	35629	21529.179955631381	0
8	35650	21537.89415047487	1
8	35651	21538.17302703743	0
8	36202	21841.766578493908	1
8	36204	21842.102903831325	0
8	36274	21879.930281033179	1
8	36276	21880.540463273732	0
8	36439	21933.532042992625	1
8	36441	21933.564216937139	0
8	36456	21937.603251762081	1
8	36458	21938.02492107614	0
8	36471	21942.503509142015	1
8	36473	21942.81406637992	0
8	36622	22007.598673265895	1
8	36626	22008.832932999334	0
8	36807	22134.051681035136	1
8	36809	22134.382873104266	0
8	36867	22194.038193714813	1
8	36869	22194.521954914216	0
8	37355	22459.872333946353	1
8	37369	22463.336516147875	0
8	37380	22467.380441130225	1
8	37381	22467.843322430683	0
8	38190	23053.062461299933	1
8	38191	23057.081857447194	0
8	38195	23058.535248772668	1
8	38196	23058.618148693644	0
8	38540	23227.344790444369	1
8	38541	23227.909765161682	0
8	38687	23373.349895125568	1
8	38689	23374.049885040353	0
8	38702	23378.448610468521	1
8	38704	23378.732012492841	0
8	38722	23385.103471178128	1
8	38726	23385.679580964132	0
8	38751	23393.849994403436	1
8	38755	23394.163769879541	0
8	39199	23665.960460287966	1
8	39203	23666.426293757832	0
8	39276	23690.143307524995	1
8	39281	23692.491897178342	0
8	39330	23742.024983226075	1
8	39331	23748.196825283755	0
8	39367	23760.925216831761	1
8	39370	23762.243732147599	2
8	39371	23763.196305063886	1
8	39374	23763.271800833223	0
8	39380	23766.288068841358	1
8	39381	23767.092794033925	0
8	39422	23779.307876763346	1
8	39424	23779.556039619647	0
8	39442	23785.660328466857	1
8	39444	23786.168659248383	0
8	39675	23889.070318951884	1
8	39681	23890.001055859571	0
8	39694	23894.002639027151	1
8	39696	23894.928831917162	0
8	39699	23895.493611140015	1
8	39701	23896.616706555337	0
8	39704	23896.83668104394	1
8	39707	23898.295218634444	2
8	39709	23898.641028053612	1
8	39711	23898.954941073255	0
8	39835	23988.419027194945	1
8	39836	23988.8520984963	0
8	39958	24040.138195232393	1
8	39960	24041.454495579618	0
8	39963	24041.570517835298	1
8	39965	24042.746421996377	0
8	39968	24042.815427275093	1
8	39971	24044.089348062964	2
8	39973	24044.663038362356	1
8	39975	24044.718943876146	0
8	39978	24045.297016538957	1
8	39983	24047.942959839612	0
8	39986	24048.180116358118	1
8	39989	24049.696872218976	2
8	39992	24051.518009121062	3
8	39994	24052.994746935257	2
8	39997	24053.456448215337	3
8	39999	24054.120470424276	2
8	40002	24055.079874010847	3
8	40004	24056.238149274906	2
8	40006	24056.270781727386	1
8	40011	24056.77873838194	0
8	40132	24125.961644225165	1
8	40135	24127.5602721553	2
8	40136	24128.365042303467	1
8	40139	24128.666744003284	0
8	40337	24223.366302675257	1
8	40339	24224.917748504881	0
8	40542	24345.086433471336	1
8	40546	24348.949127468855	0
8	40732	24447.259919075492	1
8	40734	24447.75503329419	0
8	40752	24453.063393387395	1
8	40755	24454.875407039571	2
8	40756	24455.093674148319	1
8	40759	24455.460239350468	0
8	40839	24481.628697679234	1
8	40841	24482.593705112808	0
8	40900	24534.043867611454	1
8	40901	24534.945600764376	0
8	40925	24550.399376789461	1
8	40926	24550.787628731043	0
8	41245	24709.328912669854	1
8	41246	24710.516559345435	0
8	41387	24802.011633934047	1
8	41394	24803.860883515615	0
8	41435	24853.35173384762	1
8	41436	24855.565824672749	0
8	41445	24858.261260930991	1
8	41446	24858.997220296949	0
8	41462	24863.630736089661	1
8	41466	24867.70217133808	0
8	41877	25127.950089812927	1
8	41879	25129.589328185701	0
8	42330	25432.152410451792	1
8	42331	25432.245870041382	0
8	42445	25492.676795153892	1
8	42456	25495.216692025326	0
8	42532	25568.186507421982	1
8	42536	25571.416044565906	0
8	42580	25588.500232883645	1
8	42581	25589.379721997515	0
8	42604	25596.060270695039	1
8	42606	25597.247844009368	0
8	42632	25605.500931027928	1
8	42637	25607.209076830769	2
8	42639	25607.501605279225	1
8	42641	25608.363335455653	0
8	42657	25613.932644227358	1
8	42661	25615.536627224145	0
8	42779	25726.091409665682	1
8	42781	25726.704168213773	0
8	42997	25848.82374414565	1
8	42999	25849.519444873602	0
8	43002	25850.436221071947	1
8	43004	25850.961400932326	0
8	43012	25853.45425113799	1
8	43016	25853.713551483796	0
8	43117	25892.313736197169	1
8	43119	25892.517660806891	0
8	43127	25895.631200155618	1
8	43131	25897.447127645957	0
8	43430	26088.16510881296	1
8	43431	26091.063902647487	0
8	43607	26245.61443283351	1
8	43612	26246.904026123489	2
8	43614	26247.460252657531	1
8	43626	26252.604335080441	0
8	43650	26263.611124719645	1
8	43651	26264.617892115292	0
8	43895	26430.456323112674	1
8	43896	26430.555682707436	0
8	44355	26705.670761827114	1
8	44356	26707.057090851212	0
8	44382	26715.653042766821	1
8	44384	26715.921823175443	0
8	44392	26719.227096830677	1
8	44394	26720.203462314898	0
8	44430	26739.742525600039	1
8	44431	26740.597596508913	0
8	44587	26851.49739823982	1
8	44591	26853.448995895193	0
8	44622	26863.396371557444	1
8	44624	26864.476951751302	0
8	44778	26918.372999922428	1
8	44780	26919.015921172897	0
8	44806	26927.461044755261	1
8	44808	26927.706538422998	0
8	44833	26935.304024989401	1
8	44837	26936.340054576458	0
8	44848	26940.441944932063	1
8	44850	26941.760237862873	0
8	44853	26942.252575701718	1
8	44855	26943.41927158668	0
8	44858	26943.901287242268	1
8	44860	26944.340328426647	0
8	44886	26953.411192914715	1
8	44891	26955.451665033748	0
8	44901	26957.992765509581	1
8	44903	26959.055811807755	0
8	45035	27036.604160105185	1
8	45036	27037.220269105664	0
8	45042	27038.973745595372	1
8	45045	27040.239771635352	2
8	45046	27042.858867673442	1
8	45049	27043.23182422033	0
8	45185	27114.723449742368	1
8	45186	27115.354805676405	0
8	45505	27261.818102728891	1
8	45506	27263.978154737013	0
8	45535	27282.104199464998	1
8	45536	27282.468165264247	0
8	45650	27350.182380335626	1
8	45651	27352.722139363182	0
8	45740	27411.103893074145	1
8	45741	27411.530033259722	0
8	46000	27636.057996666874	1
8	46001	27637.122497052481	0
8	46005	27638.38452364259	1
8	46006	27641.130259120841	0
8	46205	27777.725306790675	1
8	46209	27777.932194570532	0
8	46219	27781.009457108561	1
8	46223	27782.369106747219	0
8	46226	27782.863507520031	1
8	46228	27783.905521621311	0
8	46264	27795.424751314517	1
8	46269	27796.907207223763	0
8	46435	27915.474470174993	1
8	46436	27915.770927203761	0
8	47020	28362.137826753752	1
8	47021	28362.302391732	0
8	47030	28365.17575350225	1
8	47031	28367.026051337806	0
8	47205	28471.230844564539	1
8	47206	28473.357570412456	0
8	47367	28601.705899771934	1
8	47369	28602.21364746904	0
8	47805	28885.722009484348	1
8	47806	28887.286976830754	0
8	47810	28888.95021725716	1
8	47811	28889.116111934918	0
8	47944	28930.843779251154	1
8	47946	28931.065641480812	0
8	47951	28932.490130455035	1
8	47953	28933.066420317564	0
8	47956	28934.17452640644	1
8	47958	28934.547597595278	0
8	47977	28941.575484763446	1
8	47986	28943.82665399033	0
8	48177	29016.8505751909	1
8	48181	29017.587991207183	0
8	48204	29024.783558585427	1
8	48206	29025.525790959833	0
8	48337	29088.875486128577	1
8	48340	29090.518724122257	2
8	48345	29093.226166237439	3
8	48349	29094.039306710352	2
8	48351	29094.147725695852	1
8	48354	29094.874818161965	2
8	48358	29095.329022971132	1
8	48360	29096.193722956476	0
8	48366	29098.281617754042	1
8	48371	29100.031664450888	0
8	48442	29123.694482160635	1
8	48444	29123.92696564517	0
8	48465	29131.909090329424	1
8	48466	29135.107387765789	0
8	48470	29136.341360569665	1
8	48471	29138.042102071729	0
8	48480	29140.685708901372	1
8	48481	29142.54053091109	0
8	48630	29269.262675326978	1
8	48631	29270.043721784715	0
8	48680	29292.595289767196	1
8	48681	29298.037217850474	0
8	48742	29327.829268096073	1
8	48744	29327.93965771096	0
8	48884	29379.480197056596	1
8	48887	29380.743356015188	2
8	48891	29382.14897042602	1
8	48895	29382.355560178386	0
8	49030	29440.377798627174	1
8	49031	29441.053501728815	0
8	49100	29510.101859237588	1
8	49101	29512.44429895681	0
8	49155	29551.165437036308	1
8	49156	29552.36818813302	0
8	49450	29683.571581227168	1
8	49451	29683.900107985714	0
8	49460	29687.431059213521	1
8	49461	29688.299540855976	0
8	49467	29690.051719855944	1
8	49470	29691.897094584311	2
8	49471	29695.010014390882	1
8	49476	29697.468686716942	0
8	49480	29699.433396970605	1
8	49481	29702.373146227376	0
8	49830	29908.583672160463	1
8	49836	29909.583263679738	0
9	16650	10363.738354934164	1
9	16651	10366.968397681198	0
9	17052	10618.130570046565	1
9	17054	10618.255832075293	0
9	18260	11245.979853109348	1
9	18261	11246.139629247985	0
9	20667	12719.432322104878	1
9	20670	12721.175775430023	2
9	20671	12723.112464439964	1
9	20676	12724.331992432283	0
9	20679	12724.399086903317	1
9	20683	12724.658373428075	0
9	20717	12736.65889095301	1
9	20734	12742.341426341732	0
9	21725	13273.869572672143	1
9	21736	13276.435625741404	0
9	21840	13333.369907342593	1
9	21841	13333.94231178371	0
9	22157	13526.443956947068	1
9	22161	13526.763082594197	0
9	22164	13527.813664068582	1
9	22168	13528.946821074034	0
9	22204	13540.328014346512	1
9	22209	13542.191037046012	0
9	23190	14242.405248961014	1
9	23191	14245.620737136841	0
9	23195	14247.374401483067	1
9	23201	14250.594329013467	0
9	24122	14682.703674255381	1
9	24124	14683.70386097356	0
9	24129	14684.556880824896	1
9	24131	14685.825079647064	0
9	24995	15179.220047905555	1
9	24996	15179.394649629883	0
9	25041	15192.649382134371	1
9	25048	15195.587815275496	0
9	25214	15304.601551168398	1
9	25217	15305.962026502364	2
9	25219	15306.684593506433	1
9	25222	15307.508287079804	2
9	25225	15309.028545443513	3
9	25226	15309.204977808512	2
9	25229	15309.886325660128	1
9	25232	15310.820899432703	2
9	25234	15312.165364707595	1
9	25237	15312.401949093855	2
9	25239	15313.085014979316	1
9	25242	15314.204217488869	2
9	25249	15316.177190462597	1
9	25251	15316.628625873859	0
9	25265	15321.608255787557	1
9	25276	15324.815121537368	0
9	26210	15821.186870496091	1
9	26211	15821.293767249282	0
9	28382	17217.256195593143	1
9	28386	17217.67504057123	0
9	30202	18407.044985895613	1
9	30208	18408.082337970617	0
9	32470	19688.558942054346	1
9	32471	19688.987501537608	0
9	32857	19885.236681649564	1
9	32860	19886.951628292641	2
9	32864	19887.520065157724	1
9	32866	19887.686919959264	0
9	33577	20276.940050053625	1
9	33579	20277.866853340169	0
9	34815	20918.686665326931	1
9	34816	20919.560423244037	0
9	36340	21900.902968410772	1
9	36341	21901.241219762811	0
9	36350	21904.631344814883	1
9	36351	21905.680089613896	0
9	36369	21909.642203156006	1
9	36371	21911.407976575307	0
9	36379	21913.499573829126	1
9	36399	21920.948717039141	0
9	38330	23154.818556829061	1
9	38335	23157.355624931668	2
9	38339	23160.268555871404	1
9	38342	23161.663107912513	2
9	38346	23162.748353316043	1
9	38349	23163.286222275617	2
9	38351	23163.352963878068	1
9	38355	23164.525846288315	0
9	38855	23458.589613178478	1
9	38856	23460.051874542092	0
9	39639	23875.847664631957	1
9	39641	23876.103875345163	0
9	42225	25329.958437876978	1
9	42236	25335.007308573323	0
9	43300	26020.814382396806	1
9	43301	26026.639669501799	0
9	43310	26029.661303262989	1
9	43311	26030.529036965656	0
9	43710	26286.492673813133	1
9	43714	26287.87837413219	0
9	43940	26444.127659369492	1
9	43941	26444.83879090927	0
9	44225	26641.251990038858	1
9	44226	26643.306326451244	0
9	44555	26841.409733008439	1
9	44556	26842.850011593735	0
9	44710	26891.874812870353	1
9	44711	26892.202251494625	0
9	44929	26967.085772638639	1
9	44933	26968.049487496201	0
9	46765	28135.327781667174	1
9	46766	28137.464312638713	0
9	47680	28812.213824429179	1
9	47681	28812.258090689504	0
9	47685	28814.212992041656	1
9	47686	28815.850084186866	0
9	47695	28818.512987467981	1
9	47696	28819.834385816175	0

