version 2
run Third_exit_2-4-20191114-11:42:51-8981
attr configname Third_exit_2
attr datetime 20191114-11:42:51
attr experiment Third_exit_2
attr inifile omnetpp.ini
attr iterationvars ""
attr iterationvarsf ""
attr measurement ""
attr network ResponseTimeNetwork
attr processid 8981
attr repetition 4
attr replication #4
attr resultdir results
attr runnumber 4
attr seedset 4
param **.Source.interArrivalTime exponential(6s)
param **.jobPriority bernoulli(0.8)
param **.PS.serviceTimeU1 "uniform(1.2s, 2.0s)"
param **.PS.serviceTimeU2 "uniform(2.4s, 2.8s)"
param **.SS1.serviceTime exponential(1.4s)
param **.SS2.serviceTime exponential(2s)
param **.PS.exitProbability bernoulli(0.2)

vector 0 ResponseTimeNetwork.QueueU1 queueLength:vector ETV
attr interpolationmode sample-hold
attr title "queue length, vector"
vector 1 ResponseTimeNetwork.sink lifeTimeU1:vector ETV
attr interpolationmode none
attr title "lifetime of arrived jobs U1, vector"
attr unit s
vector 2 ResponseTimeNetwork.sink totalServiceTimeU1:vector ETV
attr interpolationmode none
attr title "the total time spent  by arrived jobs U1, vector"
attr unit s
vector 3 ResponseTimeNetwork.sink lifeTime:vector ETV
attr interpolationmode none
attr title "lifetime of arrived jobs, vector"
attr unit s
vector 4 ResponseTimeNetwork.sink totalServiceTime:vector ETV
attr interpolationmode none
attr title "the total time spent  by arrived jobs, vector"
attr unit s
vector 5 ResponseTimeNetwork.QueueU2 queueLength:vector ETV
attr interpolationmode sample-hold
attr title "queue length, vector"
vector 6 ResponseTimeNetwork.sink lifeTimeU2:vector ETV
attr interpolationmode none
attr title "lifetime of arrived jobs U2, vector"
attr unit s
vector 7 ResponseTimeNetwork.sink totalServiceTimeU2:vector ETV
attr interpolationmode none
attr title "the total time spent  by arrived jobs U2, vector"
attr unit s
vector 8 ResponseTimeNetwork.SS1 queueLength:vector ETV
attr interpolationmode sample-hold
attr title "queue length, vector"
vector 9 ResponseTimeNetwork.SS2 queueLength:vector ETV
attr interpolationmode sample-hold
attr title "queue length, vector"
0	10180	10010.228540662761	1
0	10181	10011.317085695226	0
0	10185	10011.512861628145	1
0	10187	10011.549072099319	2
0	10188	10012.802206818905	1
0	10191	10014.256284704391	0
0	10210	10020.978395184863	1
0	10211	10022.038572941299	0
0	10235	10040.807218968648	1
0	10236	10041.661507260979	0
0	10245	10045.614990349407	1
0	10247	10046.572179698254	2
0	10248	10046.660814434936	1
0	10251	10048.196632073907	0
0	10335	10138.215922912064	1
0	10336	10139.573375521228	0
0	10355	10154.560149883484	1
0	10356	10154.946977730667	0
0	10365	10158.967497393417	1
0	10366	10159.393560653464	0
0	10370	10159.764659230453	1
0	10373	10160.967486924031	0
0	10380	10163.483805247394	1
0	10381	10164.177946524979	0
0	10400	10179.974314272843	1
0	10401	10181.523914122682	0
0	10460	10249.079319404521	1
0	10461	10249.612239746295	0
0	10475	10258.01876358606	1
0	10476	10259.577833576813	0
0	10480	10259.636569114096	1
0	10481	10261.351174913101	0
0	10490	10264.131045130934	1
0	10494	10264.602037476367	2
0	10495	10264.721487868905	1
0	10498	10266.383301249102	0
0	10515	10276.24174176616	1
0	10516	10276.287962474891	0
0	10525	10300.006642429503	1
0	10526	10300.555001926831	0
0	10530	10301.275317558197	1
0	10531	10302.147137860059	0
0	10535	10302.30848035988	1
0	10537	10303.149199779405	2
0	10538	10303.86455326978	1
0	10541	10305.859575550294	0
0	10545	10306.862209627109	1
0	10546	10307.774618106558	0
0	10570	10320.733792432878	1
0	10571	10320.940459536178	0
0	10580	10324.691467248196	1
0	10582	10324.782878006519	2
0	10583	10325.305133360198	1
0	10586	10327.046935418008	0
0	10605	10335.977829503425	1
0	10606	10336.789371595104	0
0	10610	10337.684835235267	1
0	10611	10338.372507615705	0
0	10645	10382.56667775278	1
0	10646	10383.724380539691	0
0	10650	10383.780491671072	1
0	10651	10385.578058969935	0
0	10655	10386.602010795502	1
0	10656	10387.284397281853	0
0	10660	10387.345699892599	1
0	10662	10388.453563220262	2
0	10663	10388.530415708346	1
0	10666	10389.939520854091	0
0	10695	10428.375775903935	1
0	10696	10429.684121529535	0
0	10705	10432.111242079372	1
0	10706	10432.192732248791	0
0	10715	10434.335302743108	1
0	10716	10435.40970441084	0
0	10745	10465.956230637239	1
0	10747	10466.071979514073	2
0	10749	10466.32596449275	3
0	10750	10466.961520188957	2
0	10754	10467.862654700746	3
0	10755	10468.634220083527	2
0	10758	10470.306380178131	1
0	10762	10470.922661920433	2
0	10764	10471.650809990033	3
0	10765	10471.664843377568	2
0	10768	10473.1097833599	1
0	10771	10474.949801083937	0
0	10815	10509.650177507737	1
0	10816	10509.835681495837	0
0	10820	10509.861994034372	1
0	10821	10511.123472595795	0
0	10825	10511.682173167027	1
0	10826	10512.950280182644	0
0	10840	10522.46436448977	1
0	10841	10523.399832554836	0
0	10850	10528.118654037076	1
0	10851	10528.41098072871	0
0	10860	10534.926552956717	1
0	10861	10535.575226435814	0
0	10880	10554.631493402596	1
0	10882	10554.667832755432	2
0	10883	10556.567121439943	1
0	10886	10557.794497645417	0
0	10890	10558.272735403919	1
0	10891	10559.260795743907	0
0	10900	10564.469119563445	1
0	10901	10564.801996244792	0
0	10905	10565.684545382322	1
0	10906	10566.537990158167	0
0	10910	10567.04764823499	1
0	10911	10568.326949337427	0
0	10940	10592.189855769873	1
0	10942	10593.120396302052	2
0	10943	10593.513647576578	1
0	10947	10594.554861726326	2
0	10948	10594.743015069485	1
0	10952	10594.997898814275	2
0	10953	10596.203447131597	1
0	10957	10596.400055304633	2
0	10958	10598.100090016768	1
0	10963	10599.501496249781	0
0	10975	10605.360767397444	1
0	10977	10606.07778094159	2
0	10978	10606.905092106622	1
0	10981	10608.269654833388	0
0	10985	10608.332504405625	1
0	10986	10609.74298659717	0
0	10990	10610.541784464647	1
0	10991	10611.637461311419	0
0	11000	10614.334770273393	1
0	11002	10614.902791544236	2
0	11003	10615.002216084832	1
0	11006	10616.453688887292	0
0	11015	10621.239759339925	1
0	11016	10621.514348107025	0
0	11035	10639.747696092864	1
0	11036	10640.070598196014	0
0	11052	10660.531764985047	1
0	11053	10660.855225474764	0
0	11065	10665.859477333191	1
0	11066	10666.197828341198	0
0	11070	10666.319539592208	1
0	11071	10667.464766942632	0
0	11075	10668.178639802412	1
0	11076	10668.839049971399	0
0	11085	10673.947174079946	1
0	11086	10674.074624664026	0
0	11100	10681.572418240887	1
0	11101	10682.44989595531	0
0	11150	10739.78974151681	1
0	11151	10740.510487692876	0
0	11165	10772.927905301067	1
0	11166	10773.915822493157	0
0	11170	10774.126861312403	1
0	11172	10775.398091345108	2
0	11173	10775.75131496737	1
0	11176	10777.381243741757	0
0	11180	10777.534942210376	1
0	11181	10778.739461057133	0
0	11185	10780.326883750462	1
0	11186	10780.549146524875	0
0	11190	10780.955757295824	1
0	11192	10781.585516429984	2
0	11193	10782.273510966508	1
0	11196	10784.211483185796	0
0	11225	10800.074243003717	1
0	11227	10800.270837914884	2
0	11228	10800.667581429754	1
0	11231	10802.404385149155	0
0	11240	10805.713116224076	1
0	11242	10806.523723137342	2
0	11243	10806.548429483935	1
0	11246	10807.901302474938	0
0	11250	10808.980184977354	1
0	11252	10809.176438306624	2
0	11253	10809.859071730837	1
0	11256	10811.854114774257	0
0	11270	10816.509090263307	1
0	11271	10818.409184812486	0
0	11275	10819.650287890586	1
0	11276	10820.207101175479	0
0	11292	10839.249115093576	1
0	11293	10839.50626588757	0
0	11305	10843.756765532422	1
0	11306	10844.68846900729	0
0	11365	10897.08280505717	1
0	11366	10897.807815527232	0
0	11375	10906.897948982588	1
0	11376	10907.650112891823	0
0	11385	10912.135512940316	1
0	11386	10912.259418119477	0
0	11430	10967.26017173848	1
0	11431	10967.911856424414	0
0	11440	10972.817932458908	1
0	11442	10973.295332995493	2
0	11443	10974.69520763668	1
0	11446	10976.073892032604	0
0	11455	10977.749202599376	1
0	11456	10978.709500700112	0
0	11485	11014.891457229287	1
0	11486	11016.62361073995	0
0	11535	11070.688652540341	1
0	11536	11071.265002685502	0
0	11580	11126.933219816507	1
0	11581	11127.799336472757	0
0	11610	11161.694366457007	1
0	11611	11163.230593920714	0
0	11615	11164.604843962912	1
0	11616	11164.850596925086	0
0	11625	11168.444088309552	1
0	11626	11169.393312910162	0
0	11645	11179.659796216528	1
0	11647	11179.748897350311	2
0	11648	11180.773421136759	1
0	11652	11180.955569321182	2
0	11653	11182.010441716857	1
0	11657	11183.044125342031	2
0	11658	11183.220009930901	1
0	11661	11184.523666635066	0
0	11695	11221.177773819559	1
0	11696	11222.50086288651	0
0	11700	11222.705239815365	1
0	11701	11223.995718533858	0
0	11760	11283.492626160138	1
0	11761	11285.152021448565	0
0	11765	11285.308155678016	1
0	11766	11286.837314211828	0
0	11795	11316.78598410857	1
0	11796	11317.158011158566	0
0	11820	11327.470894487665	1
0	11821	11327.477879275873	0
0	11830	11330.284620370555	1
0	11831	11331.497863831965	0
0	11840	11335.601062213514	1
0	11841	11335.782573686774	0
0	11850	11339.060944442154	1
0	11851	11340.010125187835	0
0	11890	11387.558959752776	1
0	11892	11387.696929970868	2
0	11893	11388.752484390988	1
0	11896	11390.355512628808	0
0	11930	11457.483647628946	1
0	11931	11458.206698225009	0
0	11945	11489.646192126549	1
0	11946	11490.070779972993	0
0	12000	11553.830010370483	1
0	12001	11553.851392218705	0
0	12020	11576.797642054494	1
0	12021	11577.36649102044	0
0	12040	11589.510984708675	1
0	12042	11590.712796597141	2
0	12043	11591.178954365817	1
0	12048	11593.009091894296	0
0	12052	11593.473549305289	1
0	12053	11594.81493806873	0
0	12057	11596.030605984287	1
0	12058	11596.610777122495	0
0	12065	11598.879340201201	1
0	12066	11600.001957666096	0
0	12080	11634.564811771206	1
0	12081	11635.920300776369	0
0	12130	11680.00991136789	1
0	12133	11681.036303553219	0
0	12180	11766.998024300378	1
0	12182	11767.213665244158	2
0	12183	11768.102437821296	1
0	12187	11769.019654137089	2
0	12189	11769.896306989353	3
0	12190	11770.097828989928	2
0	12193	11771.713988909205	1
0	12197	11771.957257857331	2
0	12198	11773.618379323637	1
0	12201	11775.379468061855	0
0	12210	11777.936142104525	1
0	12211	11778.200849466515	0
0	12225	11798.320040879401	1
0	12226	11798.416328957452	0
0	12245	11829.989168169628	1
0	12246	11830.585825884025	0
0	12275	11858.908671657713	1
0	12276	11859.657374480698	0
0	12285	11861.191443854158	1
0	12287	11861.482282056973	2
0	12288	11862.331406869698	1
0	12291	11864.268549202155	0
0	12310	11873.329125742362	1
0	12311	11873.465824790778	0
0	12315	11873.587284126914	1
0	12316	11875.165621648463	0
0	12320	11875.282105003356	1
0	12323	11876.466131675723	0
0	12335	11880.356559579606	1
0	12336	11881.501749029349	0
0	12360	11912.481610279276	1
0	12361	11912.563638301174	0
0	12370	11915.355315229362	1
0	12371	11915.682942162621	0
0	12375	11915.836163888214	1
0	12376	11917.247137995976	0
0	12380	11918.143642848585	1
0	12381	11919.181686750594	0
0	12390	11922.05427438721	1
0	12391	11922.917377131678	0
0	12395	11923.35377921895	1
0	12396	11924.741286940746	0
0	12415	11939.323640846302	1
0	12417	11940.13879663936	2
0	12418	11940.538363083758	1
0	12421	11942.443939411387	0
0	12430	11946.510949182778	1
0	12431	11948.352311956153	0
0	12435	11948.461535145837	1
0	12436	11950.140649539062	0
0	12445	11953.739194614643	1
0	12446	11954.067556203222	0
0	12485	12003.989861918943	1
0	12486	12005.647291174454	0
0	12515	12040.219488634894	1
0	12516	12040.845194971531	0
0	12545	12057.549521632986	1
0	12548	12058.1999490196	0
0	12552	12058.284454849887	1
0	12553	12059.739017490495	0
0	12560	12061.819584828067	1
0	12561	12062.852228510577	0
0	12565	12064.128189949913	1
0	12566	12064.195722467277	0
0	12585	12071.683292205058	1
0	12588	12072.42247196065	0
0	12592	12072.605962466047	1
0	12593	12073.625945344956	0
0	12605	12079.991613121363	1
0	12606	12080.141068406638	0
0	12630	12098.415919724768	1
0	12631	12099.253559965007	0
0	12685	12145.136358695562	1
0	12686	12145.479329830315	0
0	12735	12229.308513342645	1
0	12736	12230.857655593948	0
0	12765	12273.196456670705	1
0	12766	12274.693992685361	0
0	12775	12291.382319928759	1
0	12778	12292.987038152627	0
0	12860	12372.506368072763	1
0	12861	12373.491933804789	0
0	12870	12400.959646155306	1
0	12871	12402.368877983089	0
0	12940	12517.902101078493	1
0	12941	12518.137389910706	0
0	12960	12549.631756258082	1
0	12962	12549.831862964658	2
0	12963	12551.090787403249	1
0	12967	12551.23084439284	2
0	12969	12551.831865340255	3
0	12970	12553.02381447848	2
0	12973	12554.270775232614	1
0	12976	12556.176817981117	0
0	12995	12594.812655832305	1
0	12996	12595.141969004528	0
0	13030	12635.073316498538	1
0	13031	12636.454549409635	0
0	13035	12638.279948719709	1
0	13036	12638.415328191034	0
0	13040	12639.550643798546	1
0	13041	12639.683851107023	0
0	13060	12653.628848113108	1
0	13061	12655.296388466699	0
0	13085	12679.674917606917	1
0	13086	12681.317160036655	0
0	13105	12691.205417566866	1
0	13106	12692.676369385497	0
0	13135	12729.205322954779	1
0	13136	12730.853747190843	0
0	13150	12745.565579734636	1
0	13151	12746.134713830343	0
0	13170	12762.250213103258	1
0	13171	12763.136695256767	0
0	13177	12763.885275498123	1
0	13178	12764.865702558992	0
0	13190	12768.558516791714	1
0	13191	12770.132814875883	0
0	13200	12773.51326180604	1
0	13202	12774.204557290621	2
0	13203	12774.765959354888	1
0	13207	12774.901165250537	2
0	13208	12776.4418503335	1
0	13211	12778.274930439356	0
0	13250	12827.289495596146	1
0	13251	12828.005454996759	0
0	13275	12856.631115587599	1
0	13276	12858.179596885943	0
0	13287	12861.179063222951	1
0	13288	12862.129228130798	0
0	13305	12876.461428726819	1
0	13306	12877.027439468508	0
0	13310	12878.658205603523	1
0	13311	12878.970442360794	0
0	13350	12925.436092912585	1
0	13352	12926.208816890445	2
0	13354	12926.431870312303	3
0	13355	12926.626236301668	2
0	13358	12927.993556408964	1
0	13361	12929.397407832004	0
0	13375	12935.427538985922	1
0	13376	12937.217913596527	0
0	13415	13008.504408322602	1
0	13417	13009.329153501236	2
0	13419	13009.369566293389	3
0	13421	13009.613613953638	4
0	13422	13009.661721601555	3
0	13426	13010.808026136024	4
0	13427	13011.600364595124	3
0	13430	13012.938518494585	2
0	13433	13014.793161442348	1
0	13436	13016.099357196347	0
0	13440	13017.25378070527	1
0	13441	13017.421769405001	0
0	13445	13019.036987122581	1
0	13446	13019.122136095383	0
0	13450	13020.234333812473	1
0	13451	13020.63661017421	0
0	13515	13109.865989841978	1
0	13516	13111.142419084222	0
0	13540	13136.721071770954	1
0	13543	13138.361105164696	0
0	13590	13170.257656315968	1
0	13592	13171.012638080091	2
0	13593	13171.506167547392	1
0	13596	13172.914620456459	0
0	13615	13192.472421611346	1
0	13616	13194.130894704146	0
0	13625	13199.317985437242	1
0	13626	13199.564760786404	0
0	13630	13200.187020313079	1
0	13631	13201.507613858131	0
0	13640	13204.546987403681	1
0	13641	13205.53321544217	0
0	13655	13222.936785673236	1
0	13658	13223.499491597131	0
0	13662	13224.735058782757	1
0	13663	13225.481181724906	0
0	13667	13226.688697457697	1
0	13668	13227.375067406684	0
0	13715	13268.083239485698	1
0	13716	13269.457556283872	0
0	13720	13269.994499201084	1
0	13722	13270.022719090183	2
0	13723	13271.427325220618	1
0	13726	13273.025054859768	0
0	13757	13286.472890895785	1
0	13759	13286.546397242438	2
0	13760	13287.820131179254	1
0	13763	13289.141064068797	0
0	13767	13289.964434162314	1
0	13768	13290.49813542937	0
0	13825	13340.557751161456	1
0	13826	13340.570609383384	0
0	13850	13373.660741330564	1
0	13851	13375.456903917989	0
0	13855	13376.292746862366	1
0	13856	13377.348041522032	0
0	13865	13385.928250151792	1
0	13867	13386.705356314002	2
0	13868	13387.204180282324	1
0	13871	13389.156420022033	0
0	13890	13407.375297360651	1
0	13891	13408.242193944351	0
0	13902	13410.888562987842	1
0	13903	13411.388747613662	0
0	13907	13412.158982550597	1
0	13908	13412.618728603021	0
0	13920	13418.679713279805	1
0	13921	13419.464626300707	0
0	13935	13461.382340766186	1
0	13936	13462.35621137744	0
0	13945	13481.753933231315	1
0	13946	13483.532919456157	0
0	13995	13537.552796915753	1
0	13996	13539.482731375109	0
0	14065	13604.562355042312	1
0	14066	13604.875314429694	0
0	14092	13628.420974117274	1
0	14093	13628.624753302751	0
0	14097	13629.494289271355	1
0	14098	13630.336688488765	0
0	14105	13633.88178454972	1
0	14106	13633.930241137972	0
0	14110	13634.053795609661	1
0	14111	13635.603247838324	0
0	14115	13635.690451420119	1
0	14116	13637.045610176815	0
0	14162	13703.780432335355	1
0	14163	13703.871976115825	0
0	14195	13719.50903629207	1
0	14196	13720.509771435781	0
0	14200	13721.926663948311	1
0	14201	13722.390800829864	0
0	14270	13786.044599252595	1
0	14271	13787.234796057705	0
0	14280	13790.906082917372	1
0	14281	13792.112669142793	0
0	14290	13796.918957663312	1
0	14291	13797.802010496182	0
0	14315	13811.314597290327	1
0	14316	13812.532295689044	0
0	14330	13824.769215174444	1
0	14331	13825.683680355842	0
0	14355	13867.577649790264	1
0	14357	13868.625630353508	2
0	14358	13868.887666872238	1
0	14361	13870.598579232861	0
0	14400	13941.190473861234	1
0	14401	13942.436074219424	0
0	14420	13950.415914973697	1
0	14421	13951.883546222353	0
0	14470	14036.046736591662	1
0	14471	14036.401330573976	0
0	14475	14037.122074285138	1
0	14476	14037.844356344014	0
0	14500	14054.272803379317	1
0	14501	14055.33150609919	0
0	14555	14090.627386682958	1
0	14556	14092.182658170368	0
0	14565	14094.190467978165	1
0	14566	14095.426684196498	0
0	14655	14200.790930676133	1
0	14658	14202.563441624621	0
0	14750	14281.85913188226	1
0	14751	14282.3922140655	0
0	14755	14283.345350654659	1
0	14756	14283.892908365921	0
0	14760	14284.735830193302	1
0	14761	14285.426255816304	0
0	14775	14291.950939135618	1
0	14776	14292.952691934898	0
0	14790	14298.196194265798	1
0	14791	14299.783697866532	0
0	14795	14300.677412309631	1
0	14796	14301.594135335903	0
0	14810	14308.780821423764	1
0	14813	14309.365284127443	0
0	14837	14341.782293997237	1
0	14838	14341.955038924264	0
0	14842	14342.49579541712	1
0	14843	14343.279977419721	0
0	14850	14345.362499190338	1
0	14851	14346.508711458678	0
0	14860	14349.083610456792	1
0	14861	14349.879996088365	0
0	14930	14432.706861165943	1
0	14931	14433.990814251778	0
0	14935	14434.892391727605	1
0	14936	14435.92032481539	0
0	14945	14442.622391479139	1
0	14946	14442.786176525493	0
0	14950	14444.40190609015	1
0	14951	14444.519087169942	0
0	14965	14460.917726355807	1
0	14966	14462.168957124883	0
0	14975	14474.561670570925	1
0	14976	14475.23881977493	0
0	15030	14559.288308747983	1
0	15031	14560.828448546094	0
0	15035	14561.757292521888	1
0	15037	14562.493630672039	2
0	15038	14562.645995378842	1
0	15042	14562.788772178216	2
0	15043	14564.079838955378	1
0	15046	14565.956414594291	0
0	15050	14566.504636844577	1
0	15051	14567.210405982634	0
0	15055	14567.680738051522	1
0	15056	14568.487660861736	0
0	15065	14580.784470489097	1
0	15066	14582.640538169284	0
0	15080	14593.486201744281	1
0	15081	14593.748223168308	0
0	15115	14658.041692818963	1
0	15116	14658.089221686947	0
0	15135	14673.713249515403	1
0	15136	14673.797942163424	0
0	15140	14675.613639101785	1
0	15141	14675.743047989534	0
0	15185	14730.063298163724	1
0	15186	14730.146078275271	0
0	15195	14732.766591226366	1
0	15196	14733.432650988117	0
0	15202	14734.694964207604	1
0	15203	14735.154918913484	0
0	15207	14735.617335884665	1
0	15209	14736.430720000046	2
0	15210	14736.856138825171	1
0	15213	14738.447326384053	0
0	15245	14805.045620637058	1
0	15246	14806.324817947979	0
0	15250	14807.391120052172	1
0	15251	14808.003699762682	0
0	15295	14853.033020211185	1
0	15297	14853.190001295149	2
0	15298	14854.043820735325	1
0	15301	14855.957868707997	0
0	15305	14856.02743269276	1
0	15307	14857.106769656593	2
0	15308	14857.359668903684	1
0	15311	14859.238123050591	0
0	15315	14861.171126520495	1
0	15316	14861.184090464449	0
0	15330	14871.793967559052	1
0	15331	14872.117904318952	0
0	15370	14928.480831883917	1
0	15371	14929.854261231181	0
0	15407	14962.424295618321	1
0	15409	14962.477594586392	2
0	15410	14963.038048409807	1
0	15413	14964.470515951651	0
0	15435	14990.018051391194	1
0	15436	14990.707261306928	0
0	15445	14997.758187518069	1
0	15446	14998.58890141846	0
0	15450	14999.374182453599	1
0	15451	14999.870318219823	0
0	15470	15011.064021731112	1
0	15473	15012.250219547648	0
0	15477	15013.246967997568	1
0	15478	15013.711313731495	0
0	15555	15079.506782728777	1
0	15556	15079.909736042627	0
0	15575	15112.487399682834	1
0	15576	15113.867482320321	0
0	15580	15115.162726014405	1
0	15581	15115.743474679915	0
0	15595	15125.045626299381	1
0	15596	15125.746253234718	0
0	15600	15126.059141397972	1
0	15601	15127.371091600146	0
0	15705	15251.429674447736	1
0	15706	15251.747243316229	0
0	15710	15252.8432574523	1
0	15711	15253.480142915565	0
0	15725	15259.731688291041	1
0	15726	15261.089301856869	0
0	15750	15297.367292007423	1
0	15751	15297.52663392013	0
0	15755	15298.642912793924	1
0	15756	15299.130119236913	0
0	15770	15314.745338320865	1
0	15771	15315.085299600784	0
0	15785	15321.84058055721	1
0	15786	15322.394451827893	0
0	15810	15335.628636732696	1
0	15811	15336.92918488354	0
0	15830	15347.293195994155	1
0	15831	15348.3671154693	0
0	15890	15425.178593352773	1
0	15891	15425.678838539626	0
0	15915	15438.500543879346	1
0	15916	15440.407986760065	0
0	15930	15451.537063257786	1
0	15931	15451.78612249574	0
0	15945	15463.144475042097	1
0	15946	15463.897972207674	0
0	15960	15476.872262176498	1
0	15961	15478.255660582461	0
0	15980	15492.413813375635	1
0	15981	15493.136640624892	0
0	16040	15593.175349940068	1
0	16041	15593.945924069789	0
0	16070	15625.696402520448	1
0	16071	15626.922368349275	0
0	16100	15645.283714992304	1
0	16101	15645.77720779282	0
0	16135	15681.998698659751	1
0	16136	15683.33957907817	0
0	16150	15706.536599894415	1
0	16151	15707.918080714444	0
0	16155	15708.575609115626	1
0	16156	15709.509012348863	0
0	16170	15737.606317666915	1
0	16172	15738.405753247562	2
0	16173	15739.182488381937	1
0	16176	15740.590057320408	0
0	16220	15799.149881752204	1
0	16221	15800.238441517901	0
0	16230	15804.178980686768	1
0	16231	15805.460254923067	0
0	16240	15809.893415138091	1
0	16241	15811.7569993093	0
0	16287	15862.925847221614	1
0	16288	15863.32867023852	0
0	16310	15888.844730084174	1
0	16311	15890.497806393272	0
0	16315	15891.528679802065	1
0	16318	15891.984655129081	0
0	16322	15892.286193477957	1
0	16323	15893.557995121843	0
0	16330	15894.808453855441	1
0	16332	15896.166491728039	2
0	16333	15896.301683681934	1
0	16336	15898.206873756564	0
0	16340	15898.245850572383	1
0	16341	15899.944281506828	0
0	16385	15942.672105249787	1
0	16386	15942.681577995571	0
0	16390	15943.460933724963	1
0	16392	15943.506621624598	2
0	16393	15944.438229148986	1
0	16396	15945.7546180084	0
0	16440	16011.11406960517	1
0	16441	16011.631181095525	0
0	16470	16033.345345576601	1
0	16471	16033.724622476471	0
0	16477	16034.019086252398	1
0	16478	16035.32732317969	0
0	16482	16035.987621510463	1
0	16483	16037.162508889844	0
0	16492	16039.88709502106	1
0	16493	16039.924981738811	0
0	16510	16052.220008338101	1
0	16511	16053.603481106247	0
0	16530	16066.207182977653	1
0	16531	16067.030892469471	0
0	16540	16068.521043816203	1
0	16541	16070.205600707529	0
0	16545	16071.162773780452	1
0	16546	16071.584677874593	0
0	16585	16117.480789367899	1
0	16586	16118.021141497844	0
0	16600	16126.513058010633	1
0	16603	16127.156140556494	0
0	16607	16127.269058314848	1
0	16608	16128.516929424675	0
0	16615	16131.256590540667	1
0	16616	16132.350181335704	0
0	16640	16145.227818823471	1
0	16642	16145.621477753589	2
0	16643	16146.443090497824	1
0	16646	16147.722032914619	0
0	16665	16163.618243406876	1
0	16667	16163.944550486294	2
0	16668	16163.978714926867	1
0	16671	16165.389059030218	0
0	16705	16221.793088683886	1
0	16706	16222.096360158186	0
0	16765	16308.202013689963	1
0	16767	16308.604137505572	2
0	16768	16308.692162859762	1
0	16771	16309.917391047576	0
0	16807	16364.179964141686	1
0	16808	16364.464301812742	0
0	16825	16400.819726106226	1
0	16826	16401.41030916053	0
0	16850	16419.478533835069	1
0	16851	16420.297095123259	0
0	16855	16420.379632395582	1
0	16856	16421.622991049615	0
0	16885	16446.544283095106	1
0	16886	16448.1685356923	0
0	16955	16520.809724770472	1
0	16956	16521.798000939251	0
0	16995	16570.897953010294	1
0	16996	16571.116182327984	0
0	17000	16571.371084444798	1
0	17002	16571.738695257125	2
0	17005	16572.5290079815	1
0	17008	16574.263012219003	0
0	17075	16655.906023860847	1
0	17077	16656.370585705014	2
0	17078	16657.360555574144	1
0	17081	16659.085618367265	0
0	17090	16661.33659806786	1
0	17091	16662.352599142251	0
0	17120	16697.698380264712	1
0	17121	16698.614328089834	0
0	17175	16747.502768353775	1
0	17176	16747.594261951531	0
0	17180	16747.986181068991	1
0	17181	16749.346567432369	0
0	17190	16759.365276514574	1
0	17191	16759.70264236988	0
0	17205	16773.443748135304	1
0	17206	16774.521378561917	0
0	17235	16810.127314502178	1
0	17236	16811.484662893661	0
0	17260	16863.276657736263	1
0	17261	16864.932270873908	0
0	17345	16961.224509243202	1
0	17346	16961.881344376085	0
0	17365	16973.14761287451	1
0	17366	16974.571315580592	0
0	17385	16989.043569272893	1
0	17386	16989.636522092305	0
0	17395	16999.400342144097	1
0	17396	17000.146523205704	0
0	17400	17000.865833343864	1
0	17401	17002.047659850261	0
0	17405	17003.22492069053	1
0	17406	17003.98774907603	0
0	17420	17009.649805993928	1
0	17421	17010.216497261258	0
0	17425	17010.402645206387	1
0	17426	17012.184895781795	0
0	17455	17030.090852400822	1
0	17456	17030.778771907133	0
0	17495	17065.049743900789	1
0	17496	17065.062797167102	0
0	17500	17065.112693308817	1
0	17501	17066.859637420761	0
0	17570	17148.247051769426	1
0	17571	17149.817099878434	0
0	17600	17164.206834918337	1
0	17601	17164.328275630494	0
0	17610	17168.741293063207	1
0	17611	17168.788098841236	0
0	17620	17179.657895459989	1
0	17621	17180.331205474175	0
0	17640	17193.755884375002	1
0	17641	17194.296018573203	0
0	17650	17196.890230922076	1
0	17651	17198.217757969151	0
0	17685	17245.217950406864	1
0	17686	17246.535682626797	0
0	17705	17259.819886575199	1
0	17706	17259.924977263526	0
0	17710	17260.842889060569	1
0	17711	17261.136493657247	0
0	17715	17261.264137562609	1
0	17716	17262.934567427353	0
0	17735	17272.467497923326	1
0	17736	17273.056538696868	0
0	17755	17302.016514903972	1
0	17756	17302.476575404354	0
0	17760	17303.994308865756	1
0	17761	17304.400587958977	0
0	17775	17350.986846622754	1
0	17776	17351.688882455477	0
0	17820	17401.766113084235	1
0	17821	17403.403251553619	0
0	17825	17404.371033468819	1
0	17826	17405.092139104115	0
0	17830	17405.180552764088	1
0	17832	17405.58439193863	2
0	17833	17406.447600068072	1
0	17836	17408.299772822963	0
0	17885	17448.51309273973	1
0	17886	17449.031160930508	0
0	17910	17468.124422765352	1
0	17911	17468.870871807061	0
0	17935	17507.397344365205	1
0	17936	17508.065705566298	0
0	17940	17508.176162451988	1
0	17941	17509.465135078508	0
0	17950	17512.673213226951	1
0	17954	17513.469079796853	2
0	17955	17513.527856651488	1
0	17958	17514.841556278783	0
0	17962	17515.071172854115	1
0	17964	17515.314388351886	2
0	17965	17516.724562676977	1
0	17970	17518.621989269349	0
0	17974	17519.072793388702	1
0	17976	17519.134994439686	2
0	17980	17519.296809172028	3
0	17981	17520.158899681996	2
0	17986	17522.014805900845	1
0	17990	17522.736940719683	2
0	17991	17523.400510381888	1
0	17995	17524.27611983554	2
0	17998	17525.371362270768	1
0	18002	17526.638217669136	2
0	18004	17526.645645049256	3
0	18005	17527.076512623373	2
0	18008	17528.89835157616	1
0	18011	17530.299917286056	0
0	18021	17533.646389451782	1
0	18023	17535.201751452668	2
0	18024	17535.571342118623	1
0	18028	17536.107083673839	2
0	18029	17537.386509815211	1
0	18032	17538.691819766144	0
0	18060	17555.28700924431	1
0	18061	17555.555017360414	0
0	18070	17557.535778359801	1
0	18072	17558.3426505267	2
0	18073	17558.764043829442	1
0	18076	17560.651208654084	0
0	18110	17597.985486924945	1
0	18111	17598.169072480937	0
0	18115	17598.934426408595	1
0	18116	17599.763341034455	0
0	18160	17668.176776023448	1
0	18161	17668.752646657551	0
0	18175	17678.251304677155	1
0	18176	17679.471774062817	0
0	18182	17681.115233674868	1
0	18183	17681.437041999889	0
0	18187	17681.74640281024	1
0	18188	17683.22213671871	0
0	18195	17686.626495870964	1
0	18196	17686.642658756976	0
0	18230	17730.10790238105	1
0	18231	17730.713195365657	0
0	18245	17739.289118775529	1
0	18246	17740.516180410046	0
0	18255	17744.027565255458	1
0	18256	17745.25182648744	0
0	18260	17745.736455309094	1
0	18261	17746.850493344437	0
0	18275	17750.870898005577	1
0	18277	17751.035149529252	2
0	18278	17752.225946460964	1
0	18281	17753.904013011718	0
0	18285	17754.489118997605	1
0	18286	17755.740309411587	0
0	18300	17780.462966021775	1
0	18303	17781.636547902852	0
0	18310	17784.832143662568	1
0	18311	17785.294083840094	0
0	18330	17798.723130265902	1
0	18331	17799.347076765917	0
0	18335	17799.676003129239	1
0	18336	17801.19288471891	0
0	18340	17801.364850836075	1
0	18343	17802.683647796422	0
0	18350	17805.354300677547	1
0	18351	17805.603649889402	0
0	18355	17807.462659290028	1
0	18356	17807.509113348372	0
0	18435	17899.226911201917	1
0	18436	17899.466167958868	0
0	18485	17950.30096351861	1
0	18486	17951.064664255231	0
0	18515	17991.322163748805	1
0	18516	17992.350306024987	0
0	18525	17998.082431849024	1
0	18526	17998.891497032527	0
0	18580	18061.493553466116	1
0	18581	18062.31352482326	0
0	18590	18066.292652209386	1
0	18591	18066.722511403401	0
0	18595	18066.992844317345	1
0	18596	18068.135164414671	0
0	18625	18100.483792936341	1
0	18626	18100.974774001064	0
0	18635	18103.420155773255	1
0	18636	18104.135635708543	0
0	18640	18105.16447439203	1
0	18641	18105.686944904076	0
0	18655	18113.110444352346	1
0	18656	18114.552797935083	0
0	18715	18201.649160964823	1
0	18716	18201.710659195116	0
0	18730	18209.631818969584	1
0	18731	18209.65608799553	0
0	18795	18273.837666479257	1
0	18796	18274.168783715486	0
0	18815	18291.220501207955	1
0	18817	18291.61558885639	2
0	18818	18292.319793518335	1
0	18821	18293.787003619299	0
0	18835	18307.479035508234	1
0	18837	18307.503203306895	2
0	18841	18307.955983173723	3
0	18842	18309.098055823609	2
0	18845	18310.716465423904	1
0	18848	18312.311763430848	0
0	18860	18316.556064292861	1
0	18864	18317.38242411496	2
0	18865	18317.856222355579	1
0	18869	18318.153811133032	2
0	18870	18319.473885483322	1
0	18874	18320.818497019476	2
0	18875	18321.155492979129	1
0	18878	18322.525617646826	0
0	18890	18327.362909890747	1
0	18892	18327.810862958678	2
0	18893	18329.196417456661	1
0	18897	18329.842522751316	2
0	18899	18329.987420034819	3
0	18900	18330.473488925379	2
0	18903	18332.056085870955	1
0	18906	18333.909079376403	0
0	18995	18457.404896315229	1
0	18996	18458.882972893009	0
0	19000	18459.471696251163	1
0	19001	18460.303128063941	0
0	19030	18500.566781097974	1
0	19031	18502.251066212148	0
0	19040	18505.411693712012	1
0	19041	18506.535660777421	0
0	19085	18546.578779648969	1
0	19086	18547.526651053721	0
0	19095	18557.289890943847	1
0	19096	18558.531109205049	0
0	19120	18580.464855158851	1
0	19122	18580.5161887597	2
0	19124	18581.848383924668	3
0	19125	18582.403415720167	2
0	19128	18583.628249862979	1
0	19131	18585.428437967415	0
0	19135	18585.660602322402	1
0	19136	18587.350375339764	0
0	19150	18591.59119590318	1
0	19151	18592.304600407283	0
0	19155	18592.627519338828	1
0	19156	18593.645311239648	0
0	19180	18605.726698545921	1
0	19181	18607.022662722294	0
0	19197	18613.235820201542	1
0	19198	18613.621740404597	0
0	19205	18616.593569999908	1
0	19206	18617.159268359548	0
0	19245	18643.181819054321	1
0	19246	18643.819515127373	0
0	19260	18658.15774465471	1
0	19261	18659.177971330889	0
0	19285	18692.104414189113	1
0	19286	18692.4807783206	0
0	19295	18694.157571348088	1
0	19297	18694.526074705939	2
0	19298	18695.602790823296	1
0	19301	18697.173016314857	0
0	19305	18698.101705809523	1
0	19306	18698.746703964748	0
0	19320	18707.21792511423	1
0	19321	18707.393813360572	0
0	19330	18709.692278087588	1
0	19331	18710.698693608931	0
0	19340	18712.237616565334	1
0	19341	18713.629663320324	0
0	19352	18716.155135245898	1
0	19353	18716.555522554561	0
0	19357	18717.202951659256	1
0	19358	18717.788896086819	0
0	19380	18761.400994264203	1
0	19382	18761.646498367382	2
0	19383	18762.38819661971	1
0	19386	18764.023579693137	0
0	19390	18764.112271656051	1
0	19391	18765.692705842776	0
0	19405	18776.13589053569	1
0	19406	18777.809245798938	0
0	19430	18800.882394848233	1
0	19431	18801.809556141988	0
0	19442	18809.716786507076	1
0	19443	18809.913777174041	0
0	19455	18815.343523543736	1
0	19456	18815.806167018563	0
0	19460	18816.488258091648	1
0	19461	18817.551444181949	0
0	19545	18910.825565586649	1
0	19546	18911.001093645312	0
0	19560	18922.448093332566	1
0	19561	18923.847713599272	0
0	19565	18924.547273083814	1
0	19566	18925.328451130271	0
0	19570	18925.646049862064	1
0	19571	18926.758402665809	0
0	19620	18970.954031169326	1
0	19621	18971.566285471329	0
0	19645	19000.49446906091	1
0	19646	19001.024245098603	0
0	19650	19001.402258346107	1
0	19652	19001.471786653498	2
0	19653	19002.461205067297	1
0	19656	19004.46099053826	0
0	19660	19005.31131539706	1
0	19661	19005.749489678999	0
0	19665	19006.486316681813	1
0	19666	19007.35221231859	0
0	19670	19007.854358658052	1
0	19671	19009.027503725698	0
0	19715	19050.767398447161	1
0	19716	19052.108084267382	0
0	19730	19060.335945723802	1
0	19732	19061.376773004358	2
0	19733	19061.505896197729	1
0	19736	19062.91442005197	0
0	19750	19074.391749416182	1
0	19751	19076.05171706666	0
0	19765	19085.685428359728	1
0	19766	19087.026148595937	0
0	19770	19087.583688676328	1
0	19771	19088.246197992653	0
0	19795	19108.803942210067	1
0	19796	19109.615311128904	0
0	19800	19109.625152388616	1
0	19801	19110.906559799497	0
0	19815	19128.932966848763	1
0	19816	19130.265175878981	0
0	19830	19137.318865981998	1
0	19831	19138.112862736946	0
0	19835	19138.80119269442	1
0	19836	19139.333014398096	0
0	19850	19156.795289883878	1
0	19851	19158.460487851308	0
0	19875	19175.665963148121	1
0	19876	19175.684380531231	0
0	19915	19214.206718962573	1
0	19916	19214.871006277082	0
0	19945	19237.356661096113	1
0	19946	19238.021472822486	0
0	20090	19394.503655335826	1
0	20091	19394.881003284155	0
0	20120	19408.060787197219	1
0	20121	19409.408301664062	0
0	20150	19422.30045722948	1
0	20151	19423.464543050484	0
0	20170	19436.544260437922	1
0	20171	19438.193721465009	0
0	20185	19456.034565716042	1
0	20186	19456.379805156916	0
0	20190	19458.194451739472	1
0	20191	19458.201933454118	0
0	20207	19465.635747771894	1
0	20210	19466.497317651319	0
0	20214	19466.992341716614	1
0	20215	19468.236364909666	0
0	20245	19489.746593288335	1
0	20246	19491.344123559245	0
0	20250	19491.881321616831	1
0	20251	19493.332918209755	0
0	20260	19495.325901733494	1
0	20261	19496.505990764375	0
0	20275	19503.967927660507	1
0	20276	19504.206165375483	0
0	20295	19528.657958609226	1
0	20296	19530.473780526743	0
0	20300	19531.468664519067	1
0	20301	19532.182006694526	0
0	20315	19542.808953254935	1
0	20316	19544.453177483565	0
0	20375	19654.025771039277	1
0	20377	19654.618296964529	2
0	20378	19654.98256119277	1
0	20381	19656.649664135945	0
0	20385	19657.339094810685	1
0	20386	19658.082406552804	0
0	20390	19658.449591163375	1
0	20391	19659.336049108316	0
0	20435	19712.751677102149	1
0	20437	19713.851827319486	2
0	20438	19714.549891523907	1
0	20443	19715.808928122262	0
0	20475	19740.303732974739	1
0	20476	19741.014308359942	0
0	20510	19808.275318009522	1
0	20511	19809.043233980042	0
0	20515	19809.053780260428	1
0	20516	19810.830073031959	0
0	20520	19811.992791953069	1
0	20521	19812.534240872403	0
0	20535	19832.760380940823	1
0	20536	19833.201933398605	0
0	20610	19931.842445897207	1
0	20611	19932.348404394724	0
0	20655	19987.012803517016	1
0	20656	19987.218476518179	0
0	20715	20064.4516913248	1
0	20716	20065.067362848284	0
0	20775	20147.219279338413	1
0	20776	20148.009609094408	0
0	20835	20220.881105805865	1
0	20837	20221.004944410903	2
0	20839	20221.335157597674	3
0	20840	20222.224869140545	2
0	20843	20223.799922866868	1
0	20847	20224.123825343332	2
0	20848	20225.577161509665	1
0	20852	20225.940775749834	2
0	20853	20226.929217160614	1
0	20856	20228.816620667027	0
0	20865	20233.206099974057	1
0	20866	20233.280793553163	0
0	20875	20236.23858879848	1
0	20876	20236.283632761185	0
0	20900	20257.827739232474	1
0	20901	20258.193078275523	0
0	20910	20266.391260565516	1
0	20911	20267.504895384044	0
0	20925	20278.120638644435	1
0	20926	20278.254550591585	0
0	20940	20290.8716887899	1
0	20941	20292.285721137624	0
0	20945	20292.684384504435	1
0	20946	20293.489936567161	0
0	20950	20294.766478437775	1
0	20951	20295.058555919926	0
0	20955	20296.598154770265	1
0	20956	20296.635620550315	0
0	20960	20297.66171478168	1
0	20961	20297.966923951234	0
0	20965	20298.077109724761	1
0	20966	20299.769107873242	0
0	20975	20311.509145118723	1
0	20976	20312.709440995373	0
0	20995	20323.438613640367	1
0	20996	20324.36520104887	0
0	21035	20372.953684221098	1
0	21036	20374.309654847877	0
0	21045	20401.227997999554	1
0	21046	20401.568098999395	0
0	21050	20403.029015105933	1
0	21051	20403.044636068328	0
0	21055	20404.843529424908	1
0	21056	20404.860535823947	0
0	21100	20453.126901404772	1
0	21101	20453.476763616092	0
0	21110	20455.608766648867	1
0	21112	20456.213659097579	2
0	21113	20456.869399368093	1
0	21117	20457.456700198723	2
0	21119	20458.044971732352	3
0	21120	20458.123150289879	2
0	21123	20459.550111553334	1
0	21126	20461.050043358356	0
0	21130	20461.569516429359	1
0	21132	20461.736479217449	2
0	21134	20461.760823556947	3
0	21136	20462.628129781632	4
0	21137	20462.884289857634	3
0	21140	20464.08750364136	2
0	21143	20465.524822173529	1
0	21148	20467.47779554192	0
0	21170	20492.529279950133	1
0	21171	20494.021921960644	0
0	21185	20513.915918551285	1
0	21186	20514.481467151157	0
0	21210	20558.811426148021	1
0	21211	20560.403272788703	0
0	21230	20577.37320003815	1
0	21231	20577.954219359874	0
0	21245	20615.976095616648	1
0	21246	20616.293646283196	0
0	21290	20671.080514001866	1
0	21291	20671.632914829297	0
0	21295	20672.655699665721	1
0	21296	20673.168109405829	0
0	21300	20673.177187928823	1
0	21301	20674.713893812193	0
0	21310	20677.165723810637	1
0	21311	20678.383439987323	0
0	21345	20695.826851032563	1
0	21347	20695.880740230701	2
0	21348	20695.917407784944	1
0	21353	20697.435942875554	0
0	21370	20729.276069270259	1
0	21371	20730.10963390589	0
0	21375	20730.210379084483	1
0	21376	20731.588203618752	0
0	21385	20736.69239425196	1
0	21387	20736.936593821012	2
0	21388	20737.127897071543	1
0	21391	20739.058572296689	0
0	21430	20813.087996756146	1
0	21431	20813.343218549321	0
0	21445	20838.704496066447	1
0	21446	20838.754545653439	0
0	21450	20839.479660259495	1
0	21451	20840.366249640486	0
0	21465	20859.966936101123	1
0	21466	20861.815458503792	0
0	21470	20861.983353947652	1
0	21472	20862.095513351011	2
0	21473	20863.371920867877	1
0	21476	20865.064225676523	0
0	21490	20883.394810069883	1
0	21491	20885.088410974839	0
0	21495	20885.466997832642	1
0	21497	20885.947941218413	2
0	21498	20886.637311287769	1
0	21502	20887.60377063445	2
0	21503	20887.977401440018	1
0	21507	20889.261712237758	2
0	21508	20889.71582173592	1
0	21512	20891.209445738605	2
0	21513	20891.701972332211	1
0	21516	20893.503864870393	0
0	21520	20893.621624075109	1
0	21521	20895.41317958849	0
0	21530	20898.254530043407	1
0	21531	20899.215769697691	0
0	21540	20902.751073442323	1
0	21541	20902.928626067295	0
0	21550	20906.919834002343	1
0	21551	20907.642625559345	0
0	21565	20914.997223149223	1
0	21569	20915.66166775037	2
0	21570	20915.740778556365	1
0	21573	20917.583168994907	0
0	21600	20943.576857265542	1
0	21601	20944.448301177322	0
0	21605	20945.26470105321	1
0	21606	20946.243847203664	0
0	21610	20947.018946524469	1
0	21611	20947.47654185988	0
0	21615	20948.141553221685	1
0	21616	20949.343476336673	0
0	21620	20949.595510118677	1
0	21621	20951.243388410136	0
0	21625	20952.501470520167	1
0	21626	20952.940651152134	0
0	21670	21007.620209745169	1
0	21671	21007.680253740747	0
0	21755	21117.583451645741	1
0	21758	21119.120795215245	0
0	21762	21120.110506395729	1
0	21763	21121.112255825612	0
0	21767	21121.907234093966	1
0	21771	21122.290260006508	2
0	21772	21122.356081033821	1
0	21776	21123.435650447372	2
0	21777	21123.890011144939	1
0	21780	21125.520313619587	0
0	21784	21126.099989427206	1
0	21785	21127.380850249294	0
0	21789	21128.865658029603	1
0	21790	21129.098642642561	0
0	21820	21143.526648399501	1
0	21822	21144.600720368743	2
0	21823	21145.191735927978	1
0	21826	21146.667995388837	0
0	21830	21147.144694365269	1
0	21831	21148.407408983292	0
0	21835	21149.595320920553	1
0	21836	21150.386230706641	0
0	21875	21195.774582447324	1
0	21876	21196.961451997939	0
0	21935	21237.662574173592	1
0	21936	21238.993520297862	0
0	21965	21259.344406893281	1
0	21966	21259.914941638929	0
0	22055	21368.379726090905	1
0	22056	21368.40384224693	0
0	22065	21374.795178033256	1
0	22066	21374.888914632972	0
0	22080	21389.952695018617	1
0	22081	21390.065965865193	0
0	22090	21403.215682716551	1
0	22091	21404.476834223885	0
0	22095	21404.962607426582	1
0	22098	21406.110520565603	0
0	22102	21407.872209298296	1
0	22103	21407.880899037886	0
0	22110	21409.875983375637	1
0	22111	21410.795944147091	0
0	22150	21450.377730175867	1
0	22151	21451.096179061923	0
0	22155	21451.568294098816	1
0	22157	21452.182689194722	2
0	22158	21452.86249507105	1
0	22162	21453.265130273357	2
0	22163	21454.794454400782	1
0	22166	21456.14911767466	0
0	22180	21470.791889625623	1
0	22181	21471.740158692837	0
0	22190	21475.295559367692	1
0	22191	21475.641205632259	0
0	22195	21476.347185848373	1
0	22196	21477.36388444597	0
0	22200	21478.860122143412	1
0	22201	21479.241271282491	0
0	22225	21497.892343577712	1
0	22226	21498.412618772249	0
0	22260	21535.192325421092	1
0	22261	21536.06943117458	0
0	22300	21590.304536081905	1
0	22301	21590.441252691123	0
0	22305	21590.754763077317	1
0	22306	21592.4315452261	0
0	22320	21596.30524049661	1
0	22321	21597.729500287575	0
0	22330	21605.566649296663	1
0	22333	21606.714925694508	0
0	22345	21613.677635028948	1
0	22346	21614.17480738072	0
0	22365	21627.648490955076	1
0	22366	21628.220979294822	0
0	22385	21663.93177820626	1
0	22386	21664.276087242062	0
0	22425	21705.615505851579	1
0	22426	21706.365301163769	0
0	22430	21707.802065625796	1
0	22431	21708.010592279671	0
0	22435	21708.067473902148	1
0	22438	21709.847841916135	0
0	22450	21715.994564918331	1
0	22451	21717.015467509146	0
0	22470	21728.488130218024	1
0	22471	21729.6283370954	0
0	22475	21730.943981933677	1
0	22476	21731.478955974711	0
0	22502	21743.020324151665	1
0	22503	21744.449819107887	0
0	22525	21758.119875016813	1
0	22526	21758.692989163189	0
0	22530	21759.028354775235	1
0	22532	21759.41862521101	2
0	22533	21760.209346971377	1
0	22536	21761.903835412762	0
0	22540	21762.485385864479	1
0	22541	21763.114356710478	0
0	22545	21763.697193026093	1
0	22546	21764.476608425654	0
0	22555	21769.377771046559	1
0	22557	21769.5008635907	2
0	22558	21770.214082516596	1
0	22561	21772.169728964061	0
0	22575	21780.342612206176	1
0	22576	21781.693507364062	0
0	22590	21796.056725103939	1
0	22591	21797.102114732962	0
0	22595	21797.820750709412	1
0	22596	21798.685974467013	0
0	22605	21805.813797895866	1
0	22606	21807.405894709258	0
0	22610	21807.950489973779	1
0	22611	21808.703825944542	0
0	22655	21901.121356878932	1
0	22657	21901.342068320707	2
0	22659	21901.821316030447	3
0	22660	21902.763044393072	2
0	22663	21904.67490327769	1
0	22666	21906.251473628367	0
0	22695	21929.636891297311	1
0	22697	21929.803313799612	2
0	22698	21930.826339305216	1
0	22702	21932.643649976369	2
0	22703	21932.797439481901	1
0	22707	21932.865497003943	2
0	22709	21933.021233892078	3
0	22711	21933.244252626177	4
0	22712	21934.760682365136	3
0	22715	21936.565006206581	2
0	22719	21937.627527764275	3
0	22720	21938.074027443515	2
0	22724	21938.582602341212	3
0	22727	21939.694730336243	2
0	22731	21940.731723489124	3
0	22732	21941.422829718912	2
0	22735	21943.03984521872	1
0	22741	21944.495562695383	2
0	22742	21944.793720855029	1
0	22745	21946.403651227826	0
0	22749	21947.805325457223	1
0	22751	21947.826727316458	2
0	22752	21947.911978007318	1
0	22755	21949.658844303363	0
0	22759	21951.273873534124	1
0	22760	21951.331172608794	0
0	22764	21952.377552061882	1
0	22766	21952.773932706168	2
0	22767	21952.841780756996	1
0	22771	21954.112167823918	2
0	22772	21954.464313744777	1
0	22775	21955.931808603765	0
0	22805	21981.312285090599	1
0	22806	21982.302345045484	0
0	22815	21986.601666786972	1
0	22816	21987.39949595439	0
0	22825	21994.218316696552	1
0	22826	21994.610598168156	0
0	22850	22016.594952331287	1
0	22851	22017.433873892572	0
0	22900	22091.736446526495	1
0	22902	22092.066530505773	2
0	22903	22093.15925900067	1
0	22906	22094.787592217762	0
0	22940	22157.155866881309	1
0	22942	22157.466844814655	2
0	22943	22158.757189529376	1
0	22947	22159.230364718036	2
0	22948	22160.305900107311	1
0	22951	22162.033841761375	0
0	22955	22163.704228538934	1
0	22956	22163.7754837904	0
0	22960	22164.133996943747	1
0	22961	22165.060472625481	0
0	23010	22195.466465365392	1
0	23011	22197.074951440009	0
0	23075	22282.435610945188	1
0	23076	22283.917195594674	0
0	23090	22288.928451950753	1
0	23091	22289.324075644726	0
0	23095	22289.85833364281	1
0	23096	22290.768329226861	0
0	23130	22325.778560848811	1
0	23131	22326.338270420281	0
0	23170	22367.628102705567	1
0	23171	22367.788921579869	0
0	23205	22400.909060673814	1
0	23206	22401.004488181168	0
0	23210	22401.232777400863	1
0	23211	22402.383334497208	0
0	23215	22403.42431122532	1
0	23216	22403.742559447358	0
0	23230	22415.585529528123	1
0	23231	22415.808288330851	0
0	23245	22430.689327035119	1
0	23246	22432.308217536467	0
0	23250	22432.471022433021	1
0	23251	22434.16998556945	0
0	23270	22454.917244333739	1
0	23271	22455.277442854679	0
0	23280	22457.109035015515	1
0	23281	22457.845141129791	0
0	23285	22458.627341618188	1
0	23286	22459.088060826286	0
0	23300	22479.926780278076	1
0	23301	22480.994612961015	0
0	23325	22488.872479392376	1
0	23327	22489.179867908242	2
0	23328	22490.680735493071	1
0	23331	22492.625222352698	0
0	23340	22497.876951313725	1
0	23341	22498.873582478174	0
0	23345	22499.97581576948	1
0	23346	22500.690500765414	0
0	23365	22512.083857088976	1
0	23366	22512.363356587917	0
0	23380	22517.052121165606	1
0	23381	22518.300081712802	0
0	23400	22524.516936934202	1
0	23401	22526.043683045738	0
0	23405	22527.14350017673	1
0	23408	22527.857118951537	0
0	23412	22528.723967561419	1
0	23413	22529.786775035978	0
0	23440	22547.621693578764	1
0	23441	22548.973092299345	0
0	23505	22614.37507347195	1
0	23507	22614.845672192246	2
0	23510	22615.198232406505	1
0	23513	22616.584887818747	0
0	23520	22619.186515060239	1
0	23521	22619.487271870428	0
0	23525	22619.805008591528	1
0	23526	22620.731349690759	0
0	23535	22625.5313531481	1
0	23536	22626.483752091322	0
0	23545	22656.53605615083	1
0	23546	22657.693314068042	0
0	23570	22703.628686596549	1
0	23571	22703.875062932326	0
0	23615	22737.481307451881	1
0	23617	22738.671033954619	2
0	23618	22738.933041099046	1
0	23622	22739.512409022359	2
0	23623	22740.860054143105	1
0	23627	22742.127215426489	2
0	23628	22742.619719909463	1
0	23631	22744.17483135644	0
0	23645	22750.840395186877	1
0	23647	22751.518267188858	2
0	23648	22752.029482587339	1
0	23651	22753.719705632986	0
0	23660	22766.391748607078	1
0	23661	22766.542857534934	0
0	23665	22766.974474008898	1
0	23666	22767.763943052042	0
0	23702	22805.969657908553	1
0	23703	22806.188319462538	0
0	23715	22815.599205309741	1
0	23716	22816.403923912184	0
0	23730	22826.499132402129	1
0	23731	22827.551150850138	0
0	23735	22829.312513880875	1
0	23736	22829.435391082174	0
0	23750	22837.611502982133	1
0	23751	22838.195179912593	0
0	23760	22843.536802046182	1
0	23761	22844.415738176802	0
0	23775	22874.731138795798	1
0	23777	22875.10291793001	2
0	23778	22875.252573572085	1
0	23782	22875.80255558981	2
0	23783	22876.611936400071	1
0	23786	22877.867168923266	0
0	23790	22878.297388192723	1
0	23792	22878.533548138812	2
0	23793	22879.193275792323	1
0	23797	22879.802524506489	2
0	23799	22880.350164731755	3
0	23800	22880.836500595681	2
0	23803	22882.6393065309	1
0	23806	22884.195212894104	0
0	23815	22888.011269693026	1
0	23817	22888.06939846333	2
0	23818	22889.832129063015	1
0	23822	22890.123425947574	2
0	23824	22890.260862653869	3
0	23825	22891.568545153667	2
0	23828	22892.935121418279	1
0	23831	22894.335899183642	0
0	23865	22918.655405647122	1
0	23866	22918.687350718496	0
0	23930	22984.659173860295	1
0	23931	22985.379598650769	0
0	23975	23027.433447087927	1
0	23976	23029.272453040222	0
0	23985	23032.690091155506	1
0	23986	23033.573956989475	0
0	23990	23033.575776288132	1
0	23991	23035.046923668661	0
0	24015	23072.511306527818	1
0	24016	23073.454216592647	0
0	24047	23101.823954548764	1
0	24048	23101.995210403879	0
0	24052	23103.119412202618	1
0	24053	23103.360125026596	0
0	24057	23103.94225538545	1
0	24058	23104.676120089297	0
0	24065	23108.126383063036	1
0	24066	23108.146188396145	0
0	24090	23117.976556015767	1
0	24091	23118.22750194637	0
0	24115	23151.576472643794	1
0	24117	23152.397200081917	2
0	24118	23152.537092131292	1
0	24122	23153.494226049632	2
0	24123	23154.259818757986	1
0	24126	23155.953482091715	0
0	24135	23158.235039452106	1
0	24136	23158.7493270862	0
0	24150	23176.524997059619	1
0	24151	23178.224833397042	0
0	24190	23215.893821350955	1
0	24192	23216.309104268827	2
0	24193	23216.732889969337	1
0	24196	23218.617415876749	0
0	24200	23219.134765797452	1
0	24201	23219.861342754277	0
0	24205	23220.610310428501	1
0	24207	23221.459378634938	2
0	24208	23221.843097746434	1
0	24212	23222.49605652276	2
0	24213	23223.597653691719	1
0	24216	23225.048050725895	0
0	24220	23226.405121857518	1
0	24221	23226.851961122702	0
0	24265	23273.779671309045	1
0	24266	23274.120727168302	0
0	24285	23282.971503570352	1
0	24286	23283.405932469228	0
0	24290	23284.092525012075	1
0	24291	23285.303846064703	0
0	24357	23400.467127671845	1
0	24358	23401.085215157858	0
0	24365	23403.870591856987	1
0	24366	23404.217271116032	0
0	24390	23425.185975127314	1
0	24391	23426.835083937902	0
0	24410	23440.985871844222	1
0	24411	23441.252176034313	0
0	24415	23441.812628446499	1
0	24416	23443.113738040861	0
0	24430	23449.284707473301	1
0	24431	23449.555050518923	0
0	24450	23485.454836483225	1
0	24451	23485.724678154766	0
0	24470	23503.999245881174	1
0	24471	23505.583033533331	0
0	24530	23567.687814661828	1
0	24531	23568.84125718667	0
0	24545	23574.102905372564	1
0	24546	23574.575963815134	0
0	24555	23588.120662406336	1
0	24556	23589.570772941346	0
0	24560	23589.881126247571	1
0	24561	23590.883871150884	0
0	24600	23630.259194519744	1
0	24602	23630.782336695083	2
0	24603	23631.63351181778	1
0	24606	23633.377091422257	0
0	24650	23670.125325716516	1
0	24651	23670.171909005691	0
0	24695	23719.411281674184	1
0	24696	23720.531924495286	0
0	24700	23720.801842225173	1
0	24701	23722.458970858528	0
0	24745	23771.497111125051	1
0	24747	23772.180668300456	2
0	24748	23772.949240118711	1
0	24751	23774.326501144915	0
0	24760	23777.498076158735	1
0	24762	23777.507888736501	2
0	24763	23777.570673182687	1
0	24767	23779.475159637409	2
0	24768	23779.520695399946	1
0	24771	23781.105686746991	0
0	24775	23781.374238266892	1
0	24776	23783.015839594125	0
0	24805	23810.918561277681	1
0	24806	23812.543942755881	0
0	24820	23821.736544513514	1
0	24821	23821.838161605978	0
0	24855	23851.628862740821	1
0	24856	23852.422078397405	0
0	24860	23852.739059701223	1
0	24861	23854.233089021128	0
0	24865	23854.851025582256	1
0	24866	23855.653034736123	0
0	24885	23870.33414389552	1
0	24886	23871.418660620872	0
0	24890	23872.441753844856	1
0	24891	23873.226047075812	0
0	24920	23897.778532760511	1
0	24921	23898.683225049174	0
0	24975	23962.503444780332	1
0	24976	23963.612649716466	0
0	24995	23986.25426800492	1
0	24997	23986.410222828369	2
0	24998	23987.353678779385	1
0	25002	23987.804501342417	2
0	25003	23988.851726148545	1
0	25006	23990.348920524202	0
0	25020	24011.829057727748	1
0	25021	24012.759297313951	0
0	25025	24013.711592810883	1
0	25026	24014.395810421594	0
0	25035	24019.22170864635	1
0	25036	24019.375207360694	0
0	25055	24041.366648181812	1
0	25056	24042.062199721224	0
0	25070	24050.833650738795	1
0	25071	24052.200265016685	0
0	25085	24067.878315230084	1
0	25086	24069.013040546488	0
0	25100	24087.194237120675	1
0	25101	24088.501290915324	0
0	25145	24168.447398367824	1
0	25146	24168.456462997549	0
0	25165	24185.609666914323	1
0	25166	24187.034624839671	0
0	25195	24237.166160154419	1
0	25196	24237.412811021478	0
0	25200	24238.294077729256	1
0	25201	24238.703267951653	0
0	25210	24244.720222890887	1
0	25211	24245.580560364991	0
0	25225	24253.471865741719	1
0	25226	24254.72940174564	0
0	25230	24255.423076511141	1
0	25232	24256.295231294794	2
0	25233	24256.637165582359	1
0	25236	24257.946526851684	0
0	25255	24265.819947352534	1
0	25257	24266.588426818249	2
0	25258	24267.413086755321	1
0	25261	24269.182046204366	0
0	25265	24270.507470547982	1
0	25266	24270.554542758249	0
0	25280	24303.691712891874	1
0	25281	24304.259602102863	0
0	25290	24307.810848041504	1
0	25291	24308.094071225426	0
0	25295	24308.843099215859	1
0	25296	24309.966095064184	0
0	25305	24315.109285731113	1
0	25307	24316.357211781262	2
0	25308	24316.751195782347	1
0	25311	24318.64713597495	0
0	25320	24326.351719662474	1
0	25321	24326.685462170821	0
0	25330	24331.475252332842	1
0	25331	24332.348516516583	0
0	25335	24332.918052028653	1
0	25336	24334.247769169146	0
0	25375	24384.477503957042	1
0	25376	24384.906517951705	0
0	25380	24385.989233977184	1
0	25381	24386.202657570832	0
0	25400	24419.835902464306	1
0	25401	24421.400209193671	0
0	25495	24547.571980312207	1
0	25496	24548.622558348974	0
0	25500	24549.055293241413	1
0	25501	24550.08633418714	0
0	25535	24593.591923196927	1
0	25536	24595.077268313208	0
0	25555	24607.466316521629	1
0	25556	24607.571196412049	0
0	25630	24683.178385507606	1
0	25631	24684.502441213494	0
0	25650	24717.028035384169	1
0	25651	24717.859169061318	0
0	25655	24719.157523932326	1
0	25656	24719.415210624807	0
0	25660	24720.499595169347	1
0	25661	24721.222592621319	0
0	25665	24721.477239328788	1
0	25666	24722.900148886837	0
0	25675	24724.750807552484	1
0	25676	24726.153798577502	0
0	25680	24726.777623005146	1
0	25681	24727.93349221231	0
0	25690	24734.450715403476	1
0	25691	24735.135772059092	0
0	25695	24735.612714558029	1
0	25696	24736.69175740646	0
0	25700	24737.170018278128	1
0	25701	24737.915759022141	0
0	25705	24738.646645719916	1
0	25706	24739.773285200426	0
0	25712	24741.086760628982	1
0	25713	24741.605609439665	0
0	25717	24742.247714028571	1
0	25718	24743.225159424895	0
0	25745	24795.471838155408	1
0	25746	24796.527224388973	0
0	25800	24868.832405633339	1
0	25801	24869.324855484357	0
0	25820	24890.413265130228	1
0	25821	24891.077946152604	0
0	25825	24892.563533149164	1
0	25826	24892.768140556915	0
0	25835	24895.751280129142	1
0	25836	24896.37353496816	0
0	25840	24896.82274237773	1
0	25842	24897.416937233249	2
0	25843	24897.716362523138	1
0	25846	24898.984548905529	0
0	25850	24899.038861870307	1
0	25852	24899.128841546398	2
0	25853	24900.248605320267	1
0	25856	24902.198752990402	0
0	25870	24924.188478810996	1
0	25872	24924.491085198888	2
0	25873	24924.901370581827	1
0	25877	24925.342606490496	2
0	25878	24926.266542167245	1
0	25885	24927.602312130509	0
0	25900	24945.063350999457	1
0	25902	24945.819746507243	2
0	25903	24946.349729272177	1
0	25906	24948.110534823885	0
0	25960	25007.160595254526	1
0	25961	25007.326368531077	0
0	25995	25024.873910529381	1
0	25996	25025.917529491862	0
0	26015	25049.436639134891	1
0	26016	25050.482590347903	0
0	26030	25062.255424908692	1
0	26031	25063.323992786836	0
0	26060	25090.443065409437	1
0	26061	25090.82395940728	0
0	26065	25092.159176472573	1
0	26066	25092.384331250447	0
0	26075	25100.711378745073	1
0	26076	25101.158434242818	0
0	26095	25114.669496646231	1
0	26097	25115.155859388207	2
0	26098	25115.469204616931	1
0	26102	25116.180184601022	2
0	26104	25117.052255896442	3
0	26105	25117.216817849514	2
0	26109	25117.930505654342	3
0	26110	25119.176594996278	2
0	26113	25120.429083743703	1
0	26116	25122.217601547216	0
0	26120	25122.483831242675	1
0	26121	25123.485362944019	0
0	26180	25181.124735958434	1
0	26181	25181.787734337863	0
0	26310	25315.518937935955	1
0	26311	25316.407391345897	0
0	26345	25351.161121977147	1
0	26346	25351.713426193439	0
0	26350	25351.860676409191	1
0	26351	25353.084808224656	0
0	26365	25362.545664076564	1
0	26366	25363.817070289386	0
0	26435	25425.577701586327	1
0	26436	25426.588242339871	0
0	26440	25427.533293960004	1
0	26441	25428.545562289066	0
0	26445	25429.622608877666	1
0	26446	25429.966662764891	0
0	26450	25430.69792458664	1
0	26451	25431.65172469706	0
0	26455	25431.690144329503	1
0	26457	25431.883868679603	2
0	26458	25433.053749908662	1
0	26461	25434.532812697037	0
0	26465	25435.47399454003	1
0	26466	25435.755213236778	0
0	26480	25445.825483045151	1
0	26482	25445.887443459954	2
0	26483	25446.518395929105	1
0	26487	25446.807932145691	2
0	26488	25447.77148225519	1
0	26491	25449.632812679998	0
0	26510	25458.188869874476	1
0	26511	25459.616065402067	0
0	26525	25463.038546006359	1
0	26526	25463.846137701644	0
0	26540	25473.108439659389	1
0	26541	25474.643361996582	0
0	26565	25488.380138337586	1
0	26566	25490.079852379786	0
0	26575	25493.632641434167	1
0	26578	25494.521403151832	0
0	26585	25497.866982094709	1
0	26586	25497.915409527055	0
0	26610	25522.97022249905	1
0	26611	25523.590942792847	0
0	26670	25614.120326377856	1
0	26671	25615.256278275152	0
0	26715	25692.35339687483	1
0	26717	25692.412966180024	2
0	26718	25693.219499038599	1
0	26721	25694.494350501403	0
0	26725	25694.565184611029	1
0	26726	25696.399898620389	0
0	26730	25697.763337882535	1
0	26731	25698.312787158854	0
0	26745	25714.825463432504	1
0	26746	25716.721311357571	0
0	26760	25722.991822573814	1
0	26761	25723.524354030607	0
0	26785	25736.707496939575	1
0	26786	25737.652655823129	0
0	26790	25737.848810396529	1
0	26791	25739.351929859231	0
0	26805	25747.814553785059	1
0	26806	25748.379799816997	0
0	26815	25751.322515432692	1
0	26816	25752.099626003359	0
0	26820	25752.641374797067	1
0	26821	25753.726239263792	0
0	26835	25768.914120448625	1
0	26836	25769.037053709614	0
0	26855	25781.26783611748	1
0	26856	25782.54638469445	0
0	26875	25821.567315764163	1
0	26876	25822.289119312851	0
0	26925	25877.591199941668	1
0	26926	25878.586170398216	0
0	26930	25879.683799363342	1
0	26931	25880.026640655617	0
0	26955	25897.510927638263	1
0	26956	25898.743399826199	0
0	26965	25902.064521688279	1
0	26966	25902.208240129374	0
0	26975	25904.833660727894	1
0	26976	25905.925574113631	0
0	26985	25916.395169824886	1
0	26986	25916.738642670981	0
0	26995	25921.967561541498	1
0	26996	25922.219716202382	0
0	27005	25925.365393164918	1
0	27006	25926.130766221858	0
0	27045	25965.934053069372	1
0	27046	25966.721060091942	0
0	27065	25989.282387350561	1
0	27066	25990.186723758862	0
0	27140	26064.965365306055	1
0	27141	26066.443637272326	0
0	27145	26066.85052611637	1
0	27146	26068.294209239801	0
0	27150	26068.791641826749	1
0	27151	26070.20582026763	0
0	27160	26073.000753710301	1
0	27161	26073.803201525288	0
0	27165	26074.129211584307	1
0	27166	26075.166474852341	0
0	27170	26075.559883927373	1
0	27171	26076.677569813656	0
0	27175	26077.143746333891	1
0	27176	26078.327293280514	0
0	27275	26231.549430178619	1
0	27276	26231.582631349475	0
0	27285	26234.785713851677	1
0	27286	26235.116544826602	0
0	27290	26236.074361703827	1
0	27291	26236.589916341094	0
0	27295	26237.138863709481	1
0	27296	26238.218753908103	0
0	27330	26297.101376006267	1
0	27331	26298.435830315809	0
0	27350	26308.939685369067	1
0	27351	26309.419121814336	0
0	27355	26310.316859468894	1
0	27356	26311.144310161847	0
0	27360	26312.838540163664	1
0	27361	26313.038335260752	0
0	27455	26438.101437251911	1
0	27456	26438.437254081308	0
0	27615	26613.30801326882	1
0	27616	26613.614391250826	0
0	27660	26660.125407576273	1
0	27661	26661.364023866752	0
0	27665	26662.379512234325	1
0	27666	26663.032906480567	0
0	27740	26745.085192038188	1
0	27742	26745.903438788315	2
0	27743	26746.422664428041	1
0	27746	26748.019952619918	0
0	27810	26811.118467216595	1
0	27811	26811.953869290659	0
0	27845	26845.670362692305	1
0	27846	26847.019835028503	0
0	27865	26855.799443945813	1
0	27867	26855.829033859992	2
0	27868	26856.592286770035	1
0	27871	26858.370026412595	0
0	27920	26891.425943801907	1
0	27921	26891.426076814554	0
0	27935	26899.20419641496	1
0	27936	26900.617538971877	0
0	27945	26902.564957752136	1
0	27946	26903.66907449381	0
0	27950	26904.112198379966	1
0	27951	26905.043607208669	0
0	27955	26905.511862061392	1
0	27956	26906.708040385671	0
0	27965	26922.805883961637	1
0	27966	26923.489406302259	0
0	27990	26936.474029643145	1
0	27991	26936.821195021364	0
0	27995	26937.972913499877	1
0	27996	26938.418773263599	0
0	28010	26946.301423686747	1
0	28011	26946.820965017137	0
0	28035	26986.435953306827	1
0	28036	26986.587405401692	0
0	28050	26991.54142960644	1
0	28051	26992.402698135409	0
0	28055	26992.914893752639	1
0	28056	26994.246349927257	0
0	28060	26995.639773106154	1
0	28061	26995.991359996828	0
0	28085	27027.866445891394	1
0	28086	27028.273417403597	0
0	28090	27028.951635397049	1
0	28092	27029.53389086102	2
0	28093	27030.13310682946	1
0	28097	27030.796983883387	2
0	28098	27031.487616885501	1
0	28101	27033.180331081199	0
0	28125	27065.930949801026	1
0	28126	27067.451013087033	0
0	28140	27074.980720035945	1
0	28141	27076.6288533603	0
0	28190	27124.071788445317	1
0	28191	27124.865673645982	0
0	28200	27131.073584983814	1
0	28201	27132.043896212371	0
0	28205	27133.057688988538	1
0	28206	27133.290408749821	0
0	28225	27146.475970505932	1
0	28226	27147.725106369666	0
0	28230	27148.570453516022	1
0	28231	27149.023863444439	0
0	28240	27151.284139023274	1
0	28242	27152.151512211119	2
0	28243	27152.38162494485	1
0	28247	27153.128187775974	2
0	28248	27153.597953933633	1
0	28251	27155.302713004655	0
0	28265	27161.03472070168	1
0	28266	27161.780768402698	0
0	28270	27162.304659372976	1
0	28271	27163.40052989799	0
0	28275	27163.58605498479	1
0	28276	27165.30897111095	0
0	28280	27166.870792548009	1
0	28281	27167.14381807934	0
0	28285	27168.187169560911	1
0	28286	27168.944344385373	0
0	28290	27170.057081506699	1
0	28291	27170.309006566028	0
0	28295	27171.581232386185	1
0	28296	27172.066784790563	0
0	28305	27185.636348026846	1
0	28306	27186.408035752972	0
0	28320	27192.648821939035	1
0	28322	27192.955143129674	2
0	28323	27193.641072406761	1
0	28327	27193.718244224872	2
0	28328	27195.431928170614	1
0	28331	27196.990050325684	0
0	28335	27198.697635915199	1
0	28336	27198.728555233173	0
0	28355	27207.199740306431	1
0	28356	27208.756102789134	0
0	28380	27235.332638300217	1
0	28381	27235.806184517519	0
0	28415	27250.333689929819	1
0	28416	27252.121127314042	0
0	28420	27252.178207845526	1
0	28421	27253.862654172737	0
0	28425	27254.016264507556	1
0	28426	27255.079412190538	0
0	28445	27286.302952447163	1
0	28447	27286.945703970948	2
0	28448	27286.99154444146	1
0	28453	27288.970887014782	0
0	28465	27295.441477296192	1
0	28466	27295.569544378375	0
0	28470	27296.001517004092	1
0	28472	27297.448922423334	2
0	28473	27297.556563121532	1
0	28477	27298.131556177424	2
0	28478	27299.450980015364	1
0	28481	27300.683215083261	0
0	28495	27307.248919434258	1
0	28496	27307.850511887	0
0	28505	27313.683315935827	1
0	28506	27313.807736324338	0
0	28510	27314.374325924694	1
0	28511	27315.225803076295	0
0	28535	27341.770614802448	1
0	28536	27342.971984691729	0
0	28595	27397.639123524911	1
0	28596	27398.227016001944	0
0	28610	27404.680379722497	1
0	28611	27406.479579949623	0
0	28635	27422.794003751363	1
0	28636	27423.664554621974	0
0	28645	27429.444872466794	1
0	28646	27430.781128776083	0
0	28710	27513.51237078991	1
0	28711	27514.715548026835	0
0	28725	27522.607935898438	1
0	28727	27523.188706736915	2
0	28728	27523.576796541964	1
0	28731	27524.893208608819	0
0	28735	27525.521008317439	1
0	28736	27526.467700469723	0
0	28750	27551.122100807147	1
0	28751	27552.477653877536	0
0	28770	27607.318083258488	1
0	28771	27607.353078456444	0
0	28780	27610.208791849049	1
0	28781	27611.490333628684	0
0	28790	27644.390815139557	1
0	28791	27645.04594152435	0
0	28805	27655.53264294044	1
0	28806	27656.593533504198	0
0	28835	27684.096978110793	1
0	28837	27684.36650748697	2
0	28838	27685.2062323287	1
0	28841	27686.534882755378	0
0	28900	27747.503666656629	1
0	28902	27747.974986616047	2
0	28903	27749.131511446269	1
0	28907	27750.339751947791	2
0	28908	27750.436062766792	1
0	28912	27751.593972991713	2
0	28913	27752.294700238289	1
0	28916	27753.677219990635	0
0	28920	27754.731194530802	1
0	28921	27755.28690886292	0
0	28935	27769.114229571865	1
0	28936	27769.220942445484	0
0	28942	27770.410493022804	1
0	28943	27771.007680678193	0
0	28955	27778.869692534851	1
0	28956	27778.9367537453	0
0	28960	27779.20047740176	1
0	28961	27780.845983955187	0
0	28975	27794.63393898359	1
0	28978	27795.834208590688	0
0	28985	27798.578211147517	1
0	28986	27799.169106235506	0
0	29005	27812.150348906366	1
0	29006	27812.417261949432	0
0	29025	27828.771442363682	1
0	29027	27829.364462439572	2
0	29028	27829.844382589232	1
0	29034	27831.047336282453	2
0	29035	27831.823355114568	1
0	29038	27833.77685947876	0
0	29070	27861.210399161577	1
0	29071	27861.458356140529	0
0	29075	27862.000496940207	1
0	29076	27863.409369724405	0
0	29090	27872.81619796887	1
0	29091	27873.271698730136	0
0	29100	27881.485745238177	1
0	29101	27882.451468432469	0
0	29105	27883.228072238222	1
0	29106	27883.986029764039	0
0	29140	27928.262885839158	1
0	29141	27929.401925670456	0
0	29165	27948.488324937769	1
0	29167	27949.589237670635	2
0	29168	27949.654880512471	1
0	29171	27951.200708935561	0
0	29175	27951.778412461554	1
0	29176	27952.821563187765	0
0	29205	27969.60232431101	1
0	29206	27969.605016172758	0
0	29210	27971.086711030786	1
0	29211	27971.261254554323	0
0	29215	27971.417501503892	1
0	29216	27972.794261405139	0
0	29220	27973.772197925582	1
0	29222	27973.997672772018	2
0	29223	27974.386425162746	1
0	29226	27975.952020182914	0
0	29235	27980.026596628905	1
0	29236	27980.27828410985	0
0	29247	27988.095048424455	1
0	29248	27988.353263305092	0
0	29295	28017.296416425217	1
0	29296	28017.326407648562	0
0	29325	28048.7555390177	1
0	29327	28049.230378713185	2
0	29328	28049.407858171151	1
0	29332	28051.06936324775	2
0	29333	28051.20320718626	1
0	29336	28052.668639117502	0
0	29340	28052.759255822363	1
0	29342	28053.540105121503	2
0	29343	28054.183822738774	1
0	29346	28055.910565213881	0
0	29350	28056.553146756811	1
0	29351	28057.606619898252	0
0	29375	28075.00981504791	1
0	29376	28075.893237536263	0
0	29380	28076.46874569303	1
0	29381	28077.846150955979	0
0	29395	28089.532591867788	1
0	29396	28090.272589165688	0
0	29420	28110.811886964473	1
0	29421	28111.950249168401	0
0	29425	28112.735063720659	1
0	29426	28113.194879400668	0
0	29440	28123.50674494733	1
0	29441	28125.288817354306	0
0	29460	28136.394289081274	1
0	29461	28137.276835655255	0
0	29475	28144.138707328775	1
0	29476	28144.673362918173	0
0	29485	28149.044978518502	1
0	29486	28149.717913850819	0
0	29490	28150.645205279866	1
0	29491	28151.022261202199	0
0	29565	28232.489077848457	1
0	29566	28233.328713769094	0
0	29580	28257.575503288806	1
0	29581	28257.867258435851	0
0	29595	28263.96142260518	1
0	29596	28264.93890990145	0
0	29605	28272.486052668746	1
0	29606	28273.579414879475	0
0	29610	28273.802533058294	1
0	29611	28275.332237516102	0
0	29630	28296.789915489032	1
0	29631	28296.852396253218	0
0	29635	28297.325961927074	1
0	29636	28298.21726110289	0
0	29640	28298.226277533424	1
0	29642	28298.250459590324	2
0	29643	28299.98401389504	1
0	29646	28301.224929656369	0
0	29665	28316.364875536067	1
0	29668	28317.338916115052	0
0	29685	28323.824622285251	1
0	29686	28324.413061752153	0
0	29710	28345.970612894179	1
0	29712	28346.049856192048	2
0	29713	28347.588223739515	1
0	29717	28348.701079518593	2
0	29718	28348.788244172732	1
0	29721	28350.360943634796	0
0	29750	28371.101055764622	1
0	29751	28372.452847879917	0
0	29825	28468.699928465137	1
0	29826	28469.613647285244	0
0	29835	28473.291920835166	1
0	29836	28473.813881454349	0
0	29840	28474.762704295765	1
0	29841	28475.175425048463	0
0	29845	28475.826243660397	1
0	29846	28476.910718677111	0
0	29900	28539.06915110222	1
0	29901	28540.627447384137	0
0	29915	28551.783643722938	1
0	29916	28552.828045191573	0
0	29935	28566.139422639928	1
0	29936	28567.912177743598	0
0	29950	28581.495413258895	1
0	29951	28581.774095745303	0
0	29955	28582.455491311884	1
0	29956	28583.246588233404	0
0	29960	28583.847543431337	1
0	29961	28584.858715138503	0
0	29970	28592.600485230488	1
0	29972	28593.058460713676	2
0	29973	28593.108173692652	1
0	29977	28594.826915983375	2
0	29978	28594.897763165885	1
0	29981	28596.777132683114	0
0	30005	28608.947601077783	1
0	30008	28610.807187154428	0
0	30015	28613.530777857536	1
0	30018	28614.426164806732	0
0	30025	28616.793977735003	1
0	30026	28617.464223026768	0
0	30060	28662.506832058693	1
0	30061	28663.771841413408	0
0	30080	28679.146022017176	1
0	30082	28679.494108479525	2
0	30083	28680.294744485032	1
0	30087	28680.731732095713	2
0	30088	28682.060031272818	1
0	30091	28683.934934295688	0
0	30110	28706.115934439421	1
0	30111	28707.459596900596	0
0	30162	28762.915465052635	1
0	30165	28764.226635602721	0
0	30172	28765.776283682447	1
0	30173	28767.269157357745	0
0	30195	28779.712336005688	1
0	30196	28780.527192770128	0
0	30230	28847.11964251674	1
0	30232	28847.314851777108	2
0	30233	28848.676567066293	1
0	30237	28850.078020215334	2
0	30238	28850.259239308741	1
0	30241	28851.816835244205	0
0	30260	28863.707340304959	1
0	30261	28865.536784211841	0
0	30275	28871.10933419514	1
0	30276	28871.940760501917	0
0	30285	28874.770754581871	1
0	30286	28875.025392091955	0
0	30295	28883.602218674721	1
0	30296	28884.02612984875	0
0	30310	28889.664570148166	1
0	30311	28890.758584560073	0
0	30315	28891.627223568238	1
0	30316	28892.494613955907	0
0	30330	28901.268516431254	1
0	30331	28902.184886029742	0
0	30340	28911.913239029899	1
0	30341	28912.504074961252	0
0	30345	28913.228506547832	1
0	30346	28914.166919018447	0
0	30350	28914.863214774311	1
0	30351	28915.594119956836	0
0	30380	28934.284184788096	1
0	30381	28934.354357568527	0
0	30400	28957.595117445483	1
0	30402	28957.628742708146	2
0	30403	28957.751732842548	1
0	30406	28959.403185259288	0
0	30417	28973.071851030359	1
0	30418	28973.688925093033	0
0	30422	28973.979561194813	1
0	30423	28975.302076268189	0
0	30430	28977.937327230117	1
0	30432	28978.633264145895	2
0	30433	28979.180048720718	1
0	30437	28980.315970080262	2
0	30438	28980.587311316461	1
0	30442	28981.505687555194	2
0	30443	28982.279473172494	1
0	30447	28983.231422767551	2
0	30448	28984.201585110084	1
0	30451	28986.168091830046	0
0	30457	28986.925999984878	1
0	30458	28987.981296893389	0
0	30480	29007.781350911546	1
0	30481	29007.976074196172	0
0	30495	29012.432877956656	1
0	30496	29013.506053995928	0
0	30540	29075.277381475153	1
0	30541	29075.475905712725	0
0	30555	29092.195616224703	1
0	30556	29092.830250033519	0
0	30560	29093.345745574493	1
0	30561	29094.140735416828	0
0	30570	29097.467873661667	1
0	30572	29097.910912323303	2
0	30573	29098.066127560256	1
0	30576	29099.850223368747	0
0	30585	29125.868332254588	1
0	30586	29126.855207649025	0
0	30600	29135.650557427005	1
0	30601	29137.007512149332	0
0	30610	29142.965132643009	1
0	30611	29143.735707486025	0
0	30655	29195.408009922985	1
0	30656	29195.652721255395	0
0	30662	29196.892903790853	1
0	30665	29197.519289795245	0
0	30705	29246.850927238008	1
0	30706	29247.072248424985	0
0	30710	29248.709936285024	1
0	30711	29248.798059511208	0
0	30735	29272.429985329787	1
0	30736	29272.731848128005	0
0	30767	29293.847223821421	1
0	30768	29294.435750031713	0
0	30775	29296.794064246571	1
0	30776	29298.061678318548	0
0	30782	29298.58175782061	1
0	30785	29299.94071928231	0
0	30789	29300.042610303887	1
0	30790	29301.709039859343	0
0	30800	29305.127849147794	1
0	30801	29306.421235305685	0
0	30805	29307.030116412025	1
0	30807	29307.240286294971	2
0	30808	29307.658930605892	1
0	30812	29307.822457483381	2
0	30814	29308.621772212756	3
0	30815	29309.557767767142	2
0	30819	29309.741627416621	3
0	30820	29310.812279389668	2
0	30824	29311.130762941015	3
0	30825	29312.147058320287	2
0	30829	29313.53670286928	3
0	30830	29313.705989191736	2
0	30833	29315.475685018915	1
0	30836	29317.259792998116	0
0	30865	29340.899265924304	1
0	30866	29342.248172390865	0
0	30950	29423.812759559347	1
0	30951	29425.146401525863	0
0	31010	29530.010390832469	1
0	31012	29530.90420448429	2
0	31013	29531.448215486316	1
0	31016	29532.985228381326	0
0	31095	29590.240778824572	1
0	31096	29591.503812295737	0
0	31100	29592.269918080581	1
0	31101	29592.936316526847	0
0	31155	29641.78139479407	1
0	31156	29642.636658546327	0
0	31165	29645.040911077568	1
0	31166	29646.016191962261	0
0	31200	29691.679772465318	1
0	31201	29693.421090970187	0
0	31220	29724.979576013381	1
0	31221	29726.147398365894	0
0	31225	29727.990697847703	1
0	31226	29728.017777257086	0
0	31230	29728.548751910541	1
0	31231	29729.35756004122	0
0	31240	29731.213269642971	1
0	31241	29731.921730287977	0
0	31280	29786.531231700149	1
0	31281	29788.228437687357	0
0	31285	29789.00169674344	1
0	31286	29789.739000805368	0
0	31300	29810.464465159122	1
0	31301	29811.940807858555	0
0	31315	29817.377932529083	1
0	31316	29817.752552050839	0
0	31365	29864.555345579998	1
0	31367	29865.811452202354	2
0	31368	29866.026572681457	1
0	31371	29867.904328059085	0
0	31375	29868.580099140691	1
0	31376	29869.589396817103	0
0	31405	29915.904588873789	1
0	31406	29917.05060208384	0
0	31410	29917.615360917807	1
0	31411	29918.320183140599	0
0	31425	29933.726596078956	1
0	31426	29934.81537568878	0
0	31430	29935.369478125677	1
0	31432	29935.963613516662	2
0	31433	29936.131814862523	1
0	31437	29936.213473381782	2
0	31438	29937.644824704077	1
0	31441	29939.147583042379	0
0	31450	29945.345521465135	1
0	31451	29946.954869406819	0
0	31490	29965.852314868934	1
0	31491	29966.743288723186	0
0	31500	29968.503908768464	1
0	31501	29969.783218475051	0
0	31520	29984.970584585182	1
0	31521	29985.615787167246	0
1	10182	10011.317085695226	1.573417826369
1	10189	10012.802206818905	2.573666156144
1	10192	10014.256284704391	2.743423076246
1	10197	10016.030975517217	4.481903417898
1	10215	10023.63215542468	2.653760239817
1	10220	10026.783047820409	1.320481491834
1	10225	10031.446677990068	1.331856133789
1	10230	10034.9662439158	1.216992565058
1	10237	10041.661507260979	1.676400710084
1	10240	10042.888982091465	2.081763122817
1	10249	10046.660814434936	1.518982558139
1	10252	10048.196632073907	2.5816417245
1	10260	10051.880746216821	5.308566518567
1	10265	10063.714427934502	1.999776491337
1	10270	10070.960760561362	1.804847977124
1	10277	10078.716490576552	1.274108530208
1	10285	10085.740496429823	1.551135894656
1	10290	10087.533418868655	1.593693696894
1	10295	10097.197313478263	1.55823905021
1	10305	10113.356912081342	1.545505905896
1	10310	10117.144486137442	1.574326885678
1	10320	10131.514491509212	4.358842736646
1	10325	10134.119260054181	1.499666170403
1	10337	10139.573375521228	5.103209833884
1	10345	10143.566310906278	5.350387994214
1	10350	10146.761928429588	1.810771935247
1	10357	10154.946977730667	1.928313059174
1	10360	10156.171949607333	1.611799723849
1	10367	10159.393560653464	1.54219358433
1	10374	10160.967486924031	1.999989530614
1	10377	10162.519214909994	2.754555679541
1	10385	10165.582108838768	2.098303591374
1	10390	10172.855415203025	1.484235851839
1	10402	10181.523914122682	3.489824807276
1	10405	10182.892610529352	2.918296256509
1	10410	10198.148319109401	1.89478336256
1	10415	10202.709195073213	1.781502482854
1	10422	10207.097211027785	1.656474381685
1	10435	10216.81145955895	1.67392975986
1	10447	10228.929048525094	4.024608832336
1	10457	10247.994215251051	1.902555157058
1	10465	10250.901241310231	1.82192190571
1	10470	10255.983666527388	1.474384906888
1	10485	10262.758305252843	5.028853354604
1	10496	10264.721487868905	6.702724282845
1	10499	10266.383301249102	2.252256118168
1	10502	10267.692036756456	3.089999280089
1	10510	10273.294415891322	1.825985111855
1	10517	10276.287962474891	1.963476926833
1	10520	10278.050930182853	1.809188416693
1	10527	10300.555001926831	1.441429346427
1	10539	10303.86455326978	2.589235711583
1	10547	10307.774618106558	4.625418327153
1	10550	10309.688518678061	9.681876248558
1	10587	10327.046935418008	15.21565002709
1	10590	10328.893940922378	8.1601484895
1	10600	10333.643075055304	3.899748087529
1	10612	10338.372507615705	2.39467811228
1	10615	10339.728309735415	4.355396068097
1	10630	10351.215560227457	1.472495572641
1	10640	10366.329866032203	1.900426086411
1	10652	10385.578058969935	3.011381217155
1	10664	10388.530415708346	1.928404912844
1	10667	10389.939520854091	6.159029183019
1	10670	10391.18771293625	2.734149715988
1	10675	10403.957889401254	1.694522079825
1	10680	10408.210774729316	1.672055037878
1	10685	10420.430539909505	1.538152764738
1	10690	10425.766487212587	1.402388653345
1	10697	10429.684121529535	1.860296542197
1	10702	10430.953656453789	2.577880549854
1	10710	10433.695417906493	1.584175827121
1	10720	10437.240744992528	2.90544224942
1	10725	10445.647657746211	1.785389633477
1	10730	10448.517471537391	1.563599076308
1	10735	10456.43128255571	1.486563852616
1	10756	10468.634220083527	2.677989446288
1	10759	10470.306380178131	4.234400664058
1	10766	10471.664843377568	5.338878884818
1	10772	10474.949801083937	4.027139163504
1	10775	10476.638213882878	4.987403892845
1	10780	10479.394775280831	11.532120580085
1	10785	10488.32898290478	1.917984979227
1	10800	10500.382037977501	1.867981492169
1	10805	10504.620666550348	1.968836624175
1	10827	10512.950280182644	3.088286148272
1	10830	10514.291821181051	7.885843990384
1	10842	10523.399832554836	1.519630423747
1	10852	10528.41098072871	5.94661623894
1	10855	10529.983445997046	1.86479195997
1	10862	10535.575226435814	1.644482597336
1	10865	10537.265630840886	2.339077884169
1	10870	10542.960068142067	1.502242436074
1	10877	10554.573838709438	1.857053044438
1	10887	10557.794497645417	3.163004242821
1	10892	10559.260795743907	4.592962988475
1	10902	10564.801996244792	6.529260840873
1	10907	10566.537990158167	2.068870594722
1	10912	10568.326949337427	2.642403955105
1	10915	10569.710176287521	2.662528052531
1	10925	10580.703218016844	4.237939679854
1	10949	10594.743015069485	2.553159299612
1	10959	10598.100090016768	5.966719862074
1	10964	10599.501496249781	4.503597435506
1	10967	10601.258760600322	8.13836429827
1	10979	10606.905092106622	1.793450404517
1	11010	10618.181653865026	12.103872923436
1	11017	10621.514348107025	1.208311395906
1	11020	10623.359060187459	17.998292790015
1	11025	10635.118370110424	1.241918519326
1	11037	10640.070598196014	4.700847840068
1	11040	10641.385479921251	1.637783828387
1	11054	10660.855225474764	1.533628011867
1	11057	10662.172834046189	1.641069061142
1	11067	10666.197828341198	1.431008143164
1	11077	10668.839049971399	2.519510379191
1	11080	10670.551353557889	2.372713755477
1	11087	10674.074624664026	8.215147330835
1	11090	10675.877649963895	1.930475883949
1	11105	10683.953877476663	6.178710121733
1	11110	10691.604133320672	1.958126231097
1	11119	10701.693065442448	1.747913263552
1	11140	10710.709898183637	4.05692944399
1	11152	10740.510487692876	1.431034686416
1	11155	10742.277443554512	2.487702037702
1	11160	10746.635570194779	1.47391128093
1	11177	10777.381243741757	5.050872714631
1	11182	10778.739461057133	3.341369712025
1	11187	10780.549146524875	7.621241223808
1	11194	10782.273510966508	1.946627216046
1	11197	10784.211483185796	3.255725889972
1	11200	10785.472299770696	3.886783340712
1	11220	10795.957099041024	4.045583295748
1	11229	10800.667581429754	1.665669400245
1	11232	10802.404385149155	2.330142145438
1	11235	10803.989223837156	3.718385922272
1	11244	10806.548429483935	1.941414100863
1	11254	10809.859071730837	3.335348593495
1	11257	10811.854114774257	2.873929796903
1	11260	10813.072476722501	7.359360498425
1	11277	10820.207101175479	3.698010912172
1	11280	10822.198498140007	2.548210249421
1	11297	10840.708058542524	1.458943448948
1	11310	10846.673011797159	8.770239551837
1	11315	10848.679129992678	1.345225275494
1	11320	10851.901381135291	1.551869946346
1	11330	10865.976249451088	2.980943726596
1	11340	10876.735635710618	3.549328626193
1	11345	10881.569251911021	1.979442918673
1	11352	10884.435696571135	1.638951123506
[...]
7	17040	16617.826451107521	1.928116371669
7	17055	16637.099885163127	4.628962128
7	17135	16703.265407769446	1.203361230902
7	17160	16739.505725075721	1.588199530356
7	17237	16811.484662893661	1.555950625613
7	17255	16858.503419052258	1.284015601501
7	17270	16883.02170449386	1.236254705489
7	17280	16890.984050716517	1.500995131396
7	17320	16943.63354755422	1.503088030964
7	17445	17021.292178687489	1.834866069071
7	17465	17036.204060727352	7.420134102319
7	17512	17070.272136605295	1.83946369905
7	17515	17071.67210991359	1.399973308295
7	17567	17148.045997800361	1.912599447556
7	17580	17152.926651030668	7.158436835398
7	17660	17209.302159765687	1.297381849214
7	17680	17241.960039341878	4.989778226639
7	17695	17252.224508517471	1.708236765862
7	17745	17276.286679504917	6.687328288097
7	17790	17370.739737260812	1.825205990672
7	17805	17388.497625323459	1.350376488082
7	17855	17426.54043596488	1.231084090844
7	17880	17436.385037329383	1.345233330876
7	17900	17461.905104481046	1.452647867426
7	18018	17533.613697752709	1.317249655351
7	18025	17535.571342118623	1.957644365914
7	18041	17541.463580037819	1.252554974332
7	18044	17543.034201244244	1.570621206425
7	18050	17546.717644778245	1.997016900405
7	18062	17555.555017360414	12.52081611617
7	18085	17566.977479926371	1.364446423948
7	18125	17607.575814627015	1.685368607007
7	18135	17619.447447116212	1.250219376571
7	18140	17625.367019194143	1.871562988311
7	18150	17651.353942486723	1.744349766523
7	18162	17668.752646657551	4.029138913268
7	18170	17677.527832843384	1.740837820619
7	18197	17686.642658756976	1.923649365827
7	18215	17725.243174220495	1.5488641968
7	18312	17785.294083840094	1.92752037663
7	18352	17805.603649889402	1.544578214362
7	18410	17869.974113361726	5.840631203497
7	18415	17879.441672407229	1.210584882461
7	18437	17899.466167958868	3.529531222185
7	18475	17946.51584565703	1.482801127061
7	18500	17969.432575873476	1.663323285989
7	18540	18015.424823999491	5.402003894193
7	18545	18019.436716200773	1.389814396016
7	18550	18026.543627732003	1.839018697664
7	18637	18104.135635708543	1.370481866598
7	18670	18126.70228493805	1.955708432943
7	18700	18180.332941449489	1.384705306776
7	18750	18226.716032726959	1.750276776403
7	18775	18260.242019652628	1.306269790605
7	18819	18292.319793518335	3.43617787645
7	18843	18309.098055823609	1.722831037827
7	18855	18315.837079075254	1.751312276535
7	18866	18317.856222355579	1.385982086696
7	18894	18329.196417456661	5.145005656547
7	18937	18397.767440560795	1.297315744311
7	18940	18399.725561189241	1.958120628446
7	18965	18440.395756606642	1.932327701524
7	18985	18454.747827392451	1.339475547709
7	18997	18458.882972893009	1.583007749915
7	19105	18567.776639053236	1.690658298321
7	19110	18573.792378306335	1.39270547051
7	19152	18592.304600407283	3.052870708801
7	19177	18605.597272112381	1.925305095501
7	19207	18617.159268359548	8.229971729912
7	19230	18636.804931805254	1.693259479292
7	19365	18720.703184275894	5.063394251479
7	19407	18777.809245798938	1.961396913975
7	19450	18813.661908826776	1.925873965956
7	19470	18826.197999999484	1.234716121666
7	19485	18840.455345967156	1.973464283347
7	19500	18847.9533670754	4.941441360575
7	19510	18861.375638131102	1.684635453485
7	19547	18911.001093645312	1.395631119981
7	19605	18955.224513612223	1.733171898127
7	19622	18971.566285471329	1.680192825943
7	19692	19032.147928348257	1.237306256406
7	19695	19033.472671671844	1.324743323587
7	19745	19066.541108923933	6.720307129866
7	19832	19138.112862736946	3.354379958015
7	19935	19229.952199890959	6.406474835075
7	19947	19238.021472822486	1.349857190624
7	19957	19242.458397614025	1.515593426675
7	19960	19244.027120141685	1.56872252766
7	19985	19269.176369468158	1.492889695428
7	20005	19280.971929409771	1.295130749792
7	20020	19306.476142116789	1.518963636644
7	20055	19347.576708292944	4.892064880438
7	20070	19370.317603037297	4.411563677024
7	20135	19416.141974403336	1.238822921738
7	20172	19438.193721465009	1.931111873314
7	20222	19471.267051138947	1.248630577512
7	20232	19478.33401452861	7.066963389663
7	20235	19479.581788516782	1.247773988172
7	20247	19491.344123559245	1.730867900886
7	20270	19500.50588291406	1.202093248814
7	20285	19512.456065159213	1.903171529993
7	20325	19559.960048594542	1.538689927571
7	20340	19567.958951297235	3.645789801568
7	20350	19604.988616802184	1.966118037887
7	20365	19641.270218447153	1.845523176342
7	20379	19654.98256119277	1.661401296407
7	20420	19696.656405330755	1.869187583588
7	20430	19709.907347407204	1.335316851363
7	20450	19719.013900184708	1.546154719032
7	20460	19729.604033406475	1.216037263721
7	20490	19795.089105779445	1.307560851239
7	20500	19799.982714560333	1.412985651195
7	20530	19829.826445603536	1.944666054472
7	20550	19862.850453488652	1.859468457475
7	20565	19873.234081893317	1.503954491951
7	20612	19932.348404394724	1.787040177733
7	20657	19987.218476518179	1.911062369868
7	20665	20000.942229679425	1.344071960077
7	20670	20004.957734728711	1.461868448742
7	20675	20029.353699016452	1.373037560843
7	20680	20033.817453775763	1.635363655351
7	20685	20038.662837712661	1.611324262992
7	20717	20065.067362848284	1.499278889596
7	20750	20109.01309253657	1.453974134102
7	20777	20148.009609094408	3.767010067451
7	20805	20174.67066953478	1.853296022117
7	20877	20236.283632761185	4.262765772303
7	20885	20243.669701449174	1.374182868376
7	21005	20328.855548081436	5.998828543667
7	21010	20335.874769179186	1.753670169972
7	21025	20355.433505191177	5.917856933992
7	21085	20446.514157007655	3.867681307328
7	21155	20470.477668981515	1.540066939779
7	21195	20540.871355849338	1.543142490461
7	21270	20645.161115624896	1.363146883249
7	21330	20688.82845096958	1.227794609033
7	21337	20691.511470905847	1.405192738771
7	21340	20692.96220927254	1.450738366693
7	21360	20700.521481958178	3.321930387693
7	21365	20716.311907122583	1.888896474242
7	21415	20780.025866226707	2.755081366877
7	21571	20915.740778556365	1.842056627013
7	21587	20926.106316987771	1.366716085747
7	21590	20927.6384449776	7.690112786075
7	21650	20972.91557970374	1.646604228765
7	21690	21025.734704222496	1.717048336379
7	21695	21039.568101376844	1.450927970931
7	21797	21132.15318962014	1.384486653283
7	21800	21133.495620562646	1.342430942506
7	21815	21140.78308461653	1.379408937506
7	21870	21184.574123833389	1.353870833293
7	21895	21208.576664814818	3.467269976636
7	21915	21227.003445064944	1.880674620159
7	21937	21238.993520297862	1.453026448935
7	21945	21242.40951691848	1.56835050229
7	22005	21291.108956314484	1.244555830956
7	22015	21299.19014686543	1.662199789844
7	22040	21350.847654252088	1.898780196905
7	22082	21390.065965865193	1.897472023033
7	22092	21404.476834223885	1.57978556715
7	22112	21410.795944147091	1.415872166306
7	22175	21466.682667202588	1.909125190228
7	22192	21475.641205632259	1.245090097375
7	22262	21536.06943117458	1.219674620777
7	22297	21588.460826908063	1.486828413047
7	22302	21590.441252691123	1.98042578306
7	22340	21609.651021146444	1.299017181434
7	22375	21645.133893940352	1.730330849811
7	22445	21713.491010867148	1.75563606713
7	22452	21717.015467509146	1.786418491416
7	22485	21738.255797026066	1.585208939388
7	22510	21747.25504348052	1.592521346547
7	22577	21781.693507364062	1.42657644432
7	22585	21788.822987170255	1.434612387232
7	22630	21837.404046602245	1.617967246845
7	22640	21879.068599622182	1.951831967384
7	22675	21914.134849661464	1.535553364456
7	22782	21958.81144992786	1.523264523409
7	22785	21960.735029051662	1.923579123802
7	22847	22015.470726678889	1.96241950877
7	22852	22017.433873892572	1.963147213683
7	22875	22044.682809664448	1.229652747139
7	22880	22069.761151615089	1.793979546055
7	22904	22093.15925900067	1.8471553009
7	22930	22137.57498890614	1.462366573699
7	22980	22174.547202623121	4.063027718047
7	23012	22197.074951440009	1.884670928679
7	23030	22207.593696458385	13.964569916596
7	23060	22254.706710644054	1.964933189377
7	23092	22289.324075644726	1.259822156839
7	23122	22321.710430025799	1.703698934242
7	23125	22323.594855552843	1.884425527044
7	23132	22326.338270420281	1.53853795398
7	23140	22332.044361478281	1.397188924626
7	23145	22337.132953416513	1.286084046029
7	23150	22339.485439021019	1.795608703978
7	23172	22367.788921579869	1.836034411564
7	23185	22375.342699646085	1.984371101111
7	23200	22390.121168998428	1.9975311758
7	23282	22457.845141129791	1.225789162517
7	23302	22480.994612961015	1.228723780252
7	23329	22490.680735493071	1.837244364247
7	23355	22505.605460448684	1.702730208077
7	23367	22512.363356587917	4.614357682825
7	23390	22521.879189577189	1.649082607031
7	23395	22523.564485413055	1.466801373102
7	23430	22538.621571673965	10.072467275197
7	23435	22541.006947922814	5.287705349517
7	23450	22554.841165122926	1.643317270465
7	23480	22594.151233729165	1.95932547152
7	23511	22615.198232406505	6.028601426438
7	23522	22619.487271870428	4.103123343109
7	23547	22657.693314068042	1.386123410985
7	23572	22703.875062932326	1.942673745565
7	23605	22730.864224912174	3.98528341313
7	23610	22733.342138557288	1.490896123648
7	23619	22738.933041099046	1.960247968882
7	23640	22750.038355913371	1.290083196387
7	23704	22806.188319462538	1.931621242501
7	23710	22809.098218728788	1.703682489879
7	23717	22816.403923912184	1.23875490427
7	23732	22827.551150850138	1.944071208127
7	23762	22844.415738176802	1.262922393903
7	23779	22875.252573572085	1.936882923916
7	23890	22934.536192460078	10.173035865111
7	23932	22985.379598650769	1.72939081043
7	23977	23029.272453040222	1.9578743672
7	24005	23044.130536881556	1.767341931723
7	24010	23063.009003643446	1.31549711749
7	24030	23094.019151401176	1.248437225632
7	24080	23113.575660675298	6.266940263572
7	24137	23158.7493270862	1.356411970034
7	24175	23199.140873693891	1.893435694091
7	24267	23274.120727168302	1.251911228523
7	24280	23279.986928229873	1.83328896109
7	24320	23322.854907065942	1.297711361013
7	24325	23334.414286315666	1.830570475198
7	24330	23339.412443283944	1.886201766692
7	24367	23404.217271116032	1.907421428896
7	24380	23413.819629651989	1.795387521945
7	24480	23509.065342684772	1.963889765181
7	24515	23549.279168020582	1.285646850243
7	24532	23568.84125718667	1.772164383531
7	24620	23644.447024641261	1.865017030202
7	24680	23700.769587365806	4.78008422091
7	24697	23720.531924495286	2.910358167153
7	24720	23738.680229432025	3.084176564526
7	24845	23841.122334959307	1.851038158871
7	24887	23871.418660620872	3.700772364786
7	24905	23882.719945944192	1.776161592826
7	24917	23896.718072334773	1.449173650146
7	24922	23898.683225049174	1.965152714401
7	24930	23912.991952172517	1.446336816996
7	24940	23916.672112530993	1.207597840205
7	24970	23961.091499767167	1.641899017617
7	24985	23970.915991427526	1.824821116962
7	25050	24037.896387353428	1.412285764515
7	25057	24042.062199721224	1.904784062505
7	25115	24113.227613291541	1.666920050047
7	25135	24146.076781255121	3.945596038166
7	25140	24163.197135257129	1.468901429512
7	25147	24168.456462997549	1.300320247188
7	25160	24184.588132847159	1.997737652808
7	25190	24220.375075465055	1.576422257908
7	25322	24326.685462170821	1.388143209741
7	25360	24345.346043111395	1.725314752385
7	25365	24353.865161159224	1.904529248364
7	25370	24381.863197047533	1.612024750002
7	25402	24421.400209193671	1.91450170204
7	25445	24483.065992601057	1.505954435468
7	25455	24495.34130668808	1.581536257081
7	25520	24575.198509101044	1.899030408636
7	25570	24614.742225774838	8.668140552341
7	25625	24676.602649023652	3.833257355301
7	25640	24708.567581255097	1.442149864137
7	25725	24746.318819266536	1.329803198203
7	25775	24835.983372661405	1.97774255313
7	25865	24919.874057914077	1.740211234055
7	25892	24930.844155256851	1.70336230658
7	25895	24932.652396605006	1.808241348155
7	25925	24973.166721908615	1.681529867277
7	26005	25030.301656659476	1.957545556314
7	26010	25032.250960578653	9.429309837777
7	26050	25084.514407766894	1.990091780946
7	26165	25163.319489861707	1.888926856965
7	26225	25208.977507768392	3.720106257626
7	26280	25279.95727281968	1.480476939864
7	26325	25328.984452845761	1.895009254664
7	26527	25463.846137701644	1.248880896345
7	26535	25468.158094149769	6.915965640562
7	26567	25490.079852379786	13.970932618547
7	26587	25497.915409527055	1.648204837367
7	26605	25512.138558850078	1.328806914017
7	26620	25535.798329055601	1.239477950521
7	26630	25548.989368631559	1.653835007176
7	26640	25564.28399043672	1.966034728475
7	26645	25576.539162113071	1.732039222494
7	26650	25580.210654503489	1.67678550072
7	26700	25644.935987317579	1.511262491718
7	26780	25734.195098023663	1.494714281894
7	26857	25782.54638469445	5.914517141369
7	26977	25905.925574113631	7.506290553399
7	27017	25931.790064528579	1.314499636926
7	27020	25933.068148727337	1.278084198758
7	27040	25964.209743298665	1.422760818712
7	27047	25966.721060091942	1.975600355677
7	27082	26003.486878681531	1.858360118605
7	27085	26004.719466658844	1.232587977313
7	27090	26007.29197930363	1.379808355309
7	27130	26058.191456798564	1.92970904354
7	27142	26066.443637272326	1.488887980208
7	27204	26092.556476138552	1.755939791352
7	27207	26094.224579711092	5.407632058607
7	27210	26095.855328298939	1.630748587847
7	27215	26106.523852980443	1.69058263544
7	27220	26133.117434247089	1.573862263374
7	27230	26139.382924246841	1.448067366891
7	27235	26156.846478146498	1.207070421241
7	27240	26165.096939284637	1.399439266324
7	27277	26231.582631349475	5.616019154976
7	27310	26244.367238541865	1.329160802066
7	27340	26301.446535634111	3.667251849106
7	27352	26309.419121814336	1.334060236812
7	27370	26319.759343549674	1.774463026971
7	27430	26396.195935182934	1.343099275976
7	27450	26428.495081687291	1.770275039598
7	27470	26457.403977291366	4.143777546683
7	27535	26551.35687376414	1.719023065083
7	27555	26571.476739329614	3.657150874377
7	27570	26583.150438008065	1.848647958413
7	27595	26603.857675393687	1.311357655749
7	27617	26613.614391250826	3.291014395337
7	27625	26627.276477543753	1.763728818297
7	27675	26666.7417877386	1.781591455452
7	27695	26686.608592806583	4.393353123744
7	27715	26707.245742785474	1.371016250923
7	27744	26746.422664428041	1.557316396944
7	27760	26754.958513236258	5.248332491643
7	27767	26756.254030258019	1.260792512633
7	27775	26760.51886170541	4.264831447391
7	27800	26806.544308173728	1.44086521361
7	27805	26809.634101744085	6.45562017599
7	27820	26815.699150732751	1.994867674075
7	27825	26820.599076973539	1.659172863141
7	27869	26856.592286770035	1.334971470572
7	27922	26891.426076814554	1.886466035806
7	27985	26934.55065078683	6.349431822604
7	28087	27028.273417403597	3.740248759904
7	28127	27067.451013087033	1.610637348332
7	28142	27076.6288533603	1.87714303378
7	28160	27087.103093475307	1.581735509261
7	28345	27201.84599603559	1.512772298045
7	28365	27212.480642751359	4.582709456369
7	28390	27239.695971740106	1.295299820416
7	28467	27295.569544378375	4.617359354287
7	28497	27307.850511887	1.528192731924
7	28537	27342.971984691729	1.926043599471
7	28590	27396.598905174091	1.416780678555
7	28637	27423.664554621974	1.213516197726
7	28655	27441.789428488934	1.77590470016
7	28660	27456.610685790753	1.39140256308
7	28685	27483.179124632814	1.2333141312
7	28690	27487.490502311138	1.275390129909
7	28695	27490.466843925774	1.803669031151
7	28707	27513.061237858882	1.478007904813
7	28712	27514.715548026835	1.654310167953
7	28782	27611.490333628684	1.689826057479
7	28825	27671.99362975333	11.770583919462
7	28870	27727.915939392919	1.674273977242
7	28950	27774.247945680295	1.360568013601
7	28987	27799.169106235506	1.97949597165
7	28995	27804.757214822663	1.56870817095
7	29029	27829.844382589232	1.953722567856
7	29047	27837.232736549261	1.715434883907
7	29050	27839.014528768058	1.781792218797
7	29092	27873.271698730136	3.260957180474
7	29155	27936.364214036545	1.641392872483
7	29249	27988.353263305092	1.936008136161
7	29265	27997.799182750451	7.569257657238
7	29270	27999.308903195122	1.300913501345
7	29285	28008.366390767706	1.280176050216
7	29320	28046.389854156863	1.769366824254
7	29405	28103.471157250906	1.821740929224
7	29442	28125.288817354306	1.985728376172
7	29477	28144.673362918173	1.454067793302
7	29520	28186.636247950841	1.450973506272
7	29582	28257.867258435851	1.397012484632
7	29655	28306.850138517421	1.941185775213
7	29675	28320.775142205096	1.945375675336
7	29782	28399.973061858908	1.908612220921
7	29785	28401.889741691434	1.916679832526
7	29795	28406.415367329914	1.544262921251
7	29925	28556.574937305356	1.250654391758
7	29974	28593.108173692652	1.456125253439
7	30019	28614.426164806732	1.960139748082
7	30027	28617.464223026768	1.544019043632
7	30050	28655.669217783856	3.629794907094
7	30072	28667.30586568161	4.001793410062
7	30075	28668.558410598404	1.252544916794
7	30084	28680.294744485032	1.464376940951
7	30105	28704.460943771314	1.428945643641
7	30125	28719.257301546374	1.990856682137
7	30135	28724.99199207815	1.399162810855
7	30140	28749.638734249094	1.692089286633
7	30166	28764.226635602721	3.553335307656
7	30182	28771.222386385917	1.993718770891
7	30197	28780.527192770128	13.756753877309
7	30234	28848.676567066293	1.960567915253
7	30332	28902.184886029742	1.904790804349
7	30342	28912.504074961252	1.72755642496
7	30370	28927.655016060881	1.373746042699
7	30434	28979.180048720718	1.986734924279
7	30465	28991.171428935409	1.339656427316
7	30490	29011.269179659111	1.642209292576
7	30497	29013.506053995928	1.808685563132
7	30574	29098.066127560256	5.077717290261
7	30602	29137.007512149332	5.264346021008
7	30612	29143.735707486025	1.568975452334
7	30620	29149.486290031051	1.299331532605
7	30630	29171.899161660019	1.850317437947
7	30657	29195.652721255395	1.243316929229
7	30672	29200.458485105383	1.301153246872
7	30680	29205.135424397321	4.676939291938
7	30797	29305.035254232827	7.555275561259
7	30802	29306.421235305685	1.385981072858
7	30875	29348.478351849878	1.609413000382
7	30920	29395.133417827885	3.66960059154
7	30925	29401.597035005596	1.528255715966
7	30937	29417.843679623093	10.138031749528
7	30945	29421.648043628539	3.804364005446
7	30960	29435.021595385664	1.615910754539
7	30980	29469.40758259324	1.426747382618
7	31000	29501.699647696172	1.533820482343
7	31005	29523.895681116836	1.890003443509
7	31072	29570.831892594784	8.799921450663
7	31075	29572.698616532512	1.866723937728
7	31080	29574.419125600835	1.555627057701
7	31210	29701.943945718576	1.576837338693
7	31222	29726.147398365894	1.575145348907
7	31250	29735.429776022231	4.858196043198
7	31270	29756.349480191262	1.916755320132
7	31325	29821.133940039862	4.729310644032
7	31345	29844.843669283433	1.818851739727
7	31352	29847.913302932839	1.978786785342
7	31355	29849.450432340215	7.706327559288
7	31385	29875.88993032632	1.286297426
7	31395	29898.553503132061	1.294430356659
7	31460	29952.552806417818	1.33496295251
7	31487	29965.345913772837	1.844237696566
7	31492	29966.743288723186	1.397374950349
7	31512	29972.985293738909	1.344163653441
7	31515	29974.225412732169	4.127152113072
7	31530	29996.922722151125	1.56441705022
8	10575	10322.603866039565	1
8	10579	10324.691467248196	0
8	10995	10612.921491494265	1
8	10999	10614.334770273393	0
8	12017	11575.771952272362	1
8	12019	11576.797642054494	0
8	13750	13285.764877250205	1
8	13756	13286.472890895785	0
8	15825	15343.888595905666	1
8	15826	15346.405239933007	0
8	18849	18312.311763430848	1
8	18863	18317.38242411496	0
8	19647	19001.024245098603	1
8	19649	19001.402258346107	0
8	20100	19399.442960354581	1
8	20101	19400.568374807904	0
8	20200	19462.542136883875	1
8	20201	19464.50975051898	0
8	21127	20461.050043358356	1
8	21129	20461.569516429359	0
8	21525	20896.633870245502	1
8	21526	20897.868753776665	0
8	22733	21941.422829718912	1
8	22740	21944.495562695383	0
8	22746	21946.403651227826	1
8	22748	21947.805325457223	0
8	24295	23286.76773660493	1
8	24296	23287.2247011276	0
8	26990	25918.735676808863	1
8	26994	25921.967561541498	0
8	29637	28298.21726110289	1
8	29639	28298.226277533424	0
8	29672	28318.82976652976	1
8	29676	28321.090313995909	0
9	23425	22534.756561957308	1
9	23426	22537.202576985909	0

