version 2
run Third_exit_2-3-20191017-13:44:12-1989
attr configname Third_exit_2
attr datetime 20191017-13:44:12
attr experiment Third_exit_2
attr inifile omnetpp.ini
attr iterationvars ""
attr iterationvarsf ""
attr measurement ""
attr network ResponseTimeNetwork
attr processid 1989
attr repetition 3
attr replication #3
attr resultdir results
attr runnumber 3
attr seedset 3
param **.Source.interArrivalTime exponential(6s)
param **.jobPriority bernoulli(0.8)
param **.PS.serviceTimeU1 "uniform(1.2s, 2.0s)"
param **.PS.serviceTimeU2 "uniform(2.4s, 2.8s)"
param **.SS1.serviceTime exponential(1.4s)
param **.SS2.serviceTime exponential(2s)
param **.PS.exitProbability bernoulli(0.2)

vector 0 ResponseTimeNetwork.SS1 queueLength:vector ETV
attr interpolationmode sample-hold
attr title "queue length, vector"
vector 1 ResponseTimeNetwork.SS2 queueLength:vector ETV
attr interpolationmode sample-hold
attr title "queue length, vector"
vector 2 ResponseTimeNetwork.QueueU1 queueLength:vector ETV
attr interpolationmode sample-hold
attr title "queue length, vector"
vector 3 ResponseTimeNetwork.QueueU2 queueLength:vector ETV
attr interpolationmode sample-hold
attr title "queue length, vector"
vector 4 ResponseTimeNetwork.sink lifeTimeU1:vector ETV
attr interpolationmode none
attr title "lifetime of arrived jobs U1, vector"
attr unit s
vector 5 ResponseTimeNetwork.sink lifeTime:vector ETV
attr interpolationmode none
attr title "lifetime of arrived jobs, vector"
attr unit s
vector 6 ResponseTimeNetwork.sink lifeTimeU2:vector ETV
attr interpolationmode none
attr title "lifetime of arrived jobs U2, vector"
attr unit s
0	0	0	0
0	3825	3746.908420385925	1
0	3826	3748.478267602347	0
0	6255	5982.289996683797	1
0	6256	5983.020136757452	0
0	7235	6991.305719395652	1
0	7236	6991.368554230645	0
0	8032	7821.815932409445	1
0	8034	7822.139626565157	0
0	8384	8163.592306442835	1
0	8386	8164.009799320803	0
0	10335	10183.102326680071	1
0	10336	10186.65974992932	0
0	11534	11139.958176101173	1
0	11536	11140.694393742527	0
0	12145	11747.662030523573	1
0	12146	11749.634526225681	0
0	12967	12480.293397588382	1
0	12969	12480.478409456583	0
0	14689	14046.651216678769	1
0	14691	14048.308202666282	0
0	15889	15107.359672361095	1
0	15897	15110.667668224167	2
0	15904	15113.04551740578	1
0	15907	15114.400105162564	2
0	15911	15118.282296327794	1
0	15914	15118.936977102717	0
0	17350	16675.388392932639	1
0	17351	16676.460344067017	0
0	17710	16926.893843359123	1
0	17714	16929.10800013245	0
0	19650	18888.896675142818	1
0	19651	18889.104848092818	0
0	19900	19191.809738300157	1
0	19901	19192.026710964385	0
0	20215	19569.725893870319	1
0	20221	19572.401450575198	0
0	28690	27297.969043739284	1
0	28691	27298.15174402492	0
0	30945	29434.045049114143	1
0	30946	29435.208437547331	0
0	31285	29725.617041577866	1
0	31300	29728.177105144006	0
1	0	0	0
1	922	969.352979584598	1
1	929	971.225914018312	0
1	4582	4424.545145888035	1
1	4584	4425.628940374316	0
1	8860	8702.316097479741	1
1	8861	8705.405052078098	0
2	0	0	0
2	5	5.241796973142	1
2	6	6.673653579199	0
2	10	7.304389422922	1
2	11	8.329102639736	0
2	25	21.028008006549	1
2	26	22.263622371257	0
2	30	23.11809678309	1
2	31	23.826160210893	0
2	105	122.319245334822	1
2	106	123.631525310584	0
2	200	236.050096976822	1
2	201	236.957300909612	0
2	205	237.212057783709	1
2	206	238.237384384874	0
2	215	240.171244253474	1
2	216	241.148807142306	0
2	285	319.493667997864	1
2	286	321.215292787148	0
2	290	321.372137688843	1
2	291	322.779516273333	0
2	300	326.029060275938	1
2	302	326.800271306496	2
2	304	327.038445191871	3
2	305	327.484126526187	2
2	308	328.723413666221	1
2	311	330.090912345866	0
2	335	418.215803067138	1
2	336	419.025709149499	0
2	340	419.049019961264	1
2	343	420.993474901911	0
2	380	443.637436607978	1
2	381	443.936763234335	0
2	390	446.543954796658	1
2	391	447.982113921382	0
2	460	540.753065796992	1
2	461	542.019914424132	0
2	470	551.8001288186	1
2	471	552.197655001666	0
2	515	597.139980096643	1
2	516	598.420198528198	0
2	525	600.834020970902	1
2	526	601.66914189165	0
2	530	602.270377634962	1
2	531	602.929595014504	0
2	535	603.077198620816	1
2	536	604.47868068391	0
2	560	621.017095606325	1
2	562	621.205601212463	2
2	563	621.398793846907	1
2	567	621.399837964481	2
2	570	622.818503822552	1
2	574	622.974844681994	2
2	576	624.038997013275	3
2	577	624.239918155575	2
2	580	626.228739236088	1
2	583	627.766838770153	0
2	590	630.866268872147	1
2	592	631.150681734948	2
2	593	631.243117965737	1
2	596	632.735503303425	0
2	605	636.173791412622	1
2	606	636.475223917298	0
2	610	636.764148078159	1
2	611	638.003480082907	0
2	680	728.475142178666	1
2	681	730.110824701486	0
2	745	798.519917961083	1
2	746	798.854939739478	0
2	762	835.287622882292	1
2	763	835.836747862675	0
2	840	904.73975425853	1
2	841	905.16753748846	0
2	875	936.235903049221	1
2	877	936.537705746796	2
2	878	937.319691742583	1
2	882	938.701974232495	2
2	884	938.942916577959	3
2	885	938.979618185571	2
2	888	940.488636020383	1
2	891	941.959552582352	0
2	920	968.311477749887	1
2	921	969.352979584598	0
2	925	970.698570045457	1
2	926	971.133913982102	0
2	932	972.205694230219	1
2	933	972.374686318823	0
2	939	973.216069242381	1
2	940	973.580041694269	0
2	975	1007.588487744334	1
2	976	1007.919288579332	0
2	1030	1056.808650899158	1
2	1031	1057.08831608275	0
2	1035	1057.746460309829	1
2	1036	1058.579223175515	0
2	1050	1064.155194286194	1
2	1051	1064.338973430742	0
2	1060	1068.465043884024	1
2	1061	1069.397323816072	0
2	1090	1110.125733063551	1
2	1091	1110.903838202288	0
2	1115	1133.709552863591	1
2	1116	1135.330426218725	0
2	1120	1136.317638318172	1
2	1123	1136.606008690029	0
2	1235	1248.918316642954	1
2	1236	1250.246148560527	0
2	1255	1265.907287293453	1
2	1256	1266.124000698325	0
2	1260	1267.153240145207	1
2	1261	1267.732378966545	0
2	1275	1275.301881865498	1
2	1276	1275.398001128336	0
2	1345	1348.161076993342	1
2	1346	1348.503374237863	0
2	1390	1381.906512103081	1
2	1391	1382.582212099904	0
2	1400	1384.472090252687	1
2	1401	1385.753372913698	0
2	1430	1442.8298323353	1
2	1431	1443.449079954524	0
2	1475	1494.784733324004	1
2	1476	1495.721266005991	0
2	1480	1496.043046522344	1
2	1481	1497.371406854002	0
2	1500	1529.333078979063	1
2	1501	1529.649669755444	0
2	1510	1533.150602745264	1
2	1511	1533.481335571747	0
2	1530	1546.056018537309	1
2	1531	1546.927508583534	0
2	1535	1547.583493591493	1
2	1536	1548.650231182631	0
2	1610	1625.035066380134	1
2	1611	1625.267033128027	0
2	1635	1654.664428852216	1
2	1636	1655.788346733939	0
2	1640	1657.017291253896	1
2	1641	1657.172255851556	0
2	1665	1677.536141419018	1
2	1666	1678.051803120451	0
2	1670	1678.533254884154	1
2	1671	1679.787306190135	0
2	1690	1702.342599090894	1
2	1691	1703.17195937852	0
2	1695	1703.926130296206	1
2	1696	1704.797620054657	0
2	1705	1726.127811944775	1
2	1706	1727.127696833851	0
2	1715	1729.747482751915	1
2	1716	1730.696785839972	0
2	1735	1781.297287780339	1
2	1736	1781.602537109175	0
2	1740	1782.032318628986	1
2	1741	1783.591094462046	0
2	1745	1785.057910881085	1
2	1746	1785.357223559388	0
2	1765	1804.315506687347	1
2	1766	1805.666763063274	0
2	1770	1806.914097484857	1
2	1771	1807.548840475209	0
2	1805	1844.119890617862	1
2	1806	1844.636112829583	0
2	1855	1893.100830502913	1
2	1856	1894.84611303684	0
2	1860	1895.111988339228	1
2	1862	1896.401051298096	2
2	1863	1896.437501484609	1
2	1867	1896.484647476341	2
2	1868	1897.928165352612	1
2	1872	1899.103639502481	2
2	1873	1899.685514996468	1
2	1876	1901.133532087586	0
2	1905	1933.346081450243	1
2	1906	1934.971876710339	0
2	1925	1962.9035655668	1
2	1926	1963.994295667725	0
2	1945	2006.880562319952	1
2	1946	2008.333741044468	0
2	1955	2011.539392539268	1
2	1956	2013.16312897297	0
2	1960	2013.712375566504	1
2	1961	2014.518440785803	0
2	1965	2015.438482744069	1
2	1966	2016.202503635533	0
2	1990	2031.226917234908	1
2	1991	2031.854240701225	0
2	2035	2071.038305010047	1
2	2036	2071.557610075893	0
2	2045	2076.686464450316	1
2	2046	2077.3625762792	0
2	2105	2129.791459208061	1
2	2106	2131.302249131697	0
2	2130	2156.558019099615	1
2	2131	2157.851724521136	0
2	2205	2278.732273918853	1
2	2206	2279.818776940617	0
2	2220	2297.395106966442	1
2	2223	2298.470258825668	0
2	2240	2309.599868266271	1
2	2241	2310.228715540885	0
2	2252	2313.410157377298	1
2	2253	2314.728478393208	0
2	2285	2345.992963722853	1
2	2286	2346.354931454186	0
2	2310	2362.259027691776	1
2	2311	2363.382834525768	0
2	2315	2364.050005127954	1
2	2316	2364.757243637916	0
2	2360	2415.255668530413	1
2	2361	2415.733706056059	0
2	2370	2432.296767903755	1
2	2371	2433.856412093897	0
2	2385	2465.462604214758	1
2	2386	2467.191079795554	0
2	2415	2495.516973026174	1
2	2416	2496.886774075215	0
2	2445	2528.011488445459	1
2	2446	2528.669644983194	0
2	2455	2531.177014141583	1
2	2456	2533.145311888774	0
2	2460	2533.289863439094	1
2	2461	2535.129990057555	0
2	2490	2556.871054477612	1
2	2491	2557.980062019447	0
2	2495	2558.928126523756	1
2	2496	2559.660039907316	0
2	2500	2560.536278094399	1
2	2501	2561.547281239363	0
2	2555	2600.542201766589	1
2	2556	2601.657411385894	0
2	2642	2686.72640908739	1
2	2643	2687.192325413994	0
2	2660	2707.73314843962	1
2	2661	2708.341545331939	0
2	2665	2708.945410835824	1
2	2666	2709.744588346123	0
2	2670	2710.250288523462	1
2	2671	2711.005008950173	0
2	2675	2711.980562268727	1
2	2676	2712.35652205003	0
2	2705	2735.299016914695	1
2	2706	2737.05453124676	0
2	2735	2766.541432829696	1
2	2736	2768.160742501238	0
2	2745	2773.176954405735	1
2	2746	2774.465551601225	0
2	2750	2774.912872107462	1
2	2751	2775.954394339645	0
2	2775	2813.577488075687	1
2	2777	2814.372204471942	2
2	2778	2814.808725617668	1
2	2782	2814.916794719871	2
2	2784	2815.734602804396	3
2	2785	2816.726855485728	2
2	2788	2818.111812102264	1
2	2791	2819.835874089441	0
2	2795	2820.33677626678	1
2	2796	2821.165772241755	0
2	2805	2824.928734963533	1
2	2806	2825.44585210125	0
2	2835	2850.353912716745	1
2	2836	2850.447570060997	0
2	2865	2878.084261308735	1
2	2866	2878.785154545581	0
2	2875	2893.29722587029	1
2	2876	2894.205953971885	0
2	2895	2905.875551671088	1
2	2896	2906.52563576753	0
2	2900	2907.2460147759	1
2	2901	2908.228657692286	0
2	2905	2908.320373553649	1
2	2906	2910.159698816935	0
2	2929	2922.09364897007	1
2	2930	2922.163280895115	0
2	2940	2925.688028317501	1
2	2941	2927.007693255641	0
2	2945	2927.360852120532	1
2	2946	2928.810327097163	0
2	3015	2987.386853801195	1
2	3017	2987.505195509472	2
2	3018	2988.402898045136	1
2	3022	2989.726566915693	2
2	3023	2990.107569997637	1
2	3026	2991.540862464784	0
2	3070	3045.747031019237	1
2	3071	3047.304924012507	0
2	3080	3050.639619829802	1
2	3082	3051.109069345997	2
2	3083	3051.623474230522	1
2	3086	3053.405112876834	0
2	3110	3085.508332810099	1
2	3112	3086.158944778207	2
2	3113	3087.308758781125	1
2	3117	3088.073328781852	2
2	3119	3088.724587114177	3
2	3120	3089.132110156511	2
2	3123	3091.028177095038	1
2	3128	3092.864080770706	0
2	3170	3114.39025187784	1
2	3171	3115.954130243698	0
2	3175	3116.650075936393	1
2	3176	3117.71301458236	0
2	3180	3118.19421386941	1
2	3181	3119.125510537254	0
2	3190	3129.963977637298	1
2	3191	3130.168329181295	0
2	3225	3162.486886436402	1
2	3226	3163.801683238971	0
2	3240	3172.433864592292	1
2	3241	3172.867737941761	0
2	3265	3194.02965363267	1
2	3266	3195.211244305355	0
2	3300	3216.838598775528	1
2	3301	3217.982223463495	0
2	3305	3218.127653427387	1
2	3307	3218.587872414358	2
2	3308	3219.633215275657	1
2	3311	3220.875452578877	0
2	3320	3224.964866618092	1
2	3321	3224.971708180272	0
2	3325	3226.649943168427	1
2	3326	3226.874943178968	0
2	3330	3227.878299149139	1
2	3331	3228.094705968426	0
2	3385	3292.480724805842	1
2	3387	3292.746021735898	2
2	3388	3292.751154829066	1
2	3391	3293.958960686501	0
2	3395	3294.775476306946	1
2	3396	3295.791104876127	0
2	3455	3335.909813759454	1
2	3456	3336.900929038876	0
2	3505	3401.645158390406	1
2	3506	3403.104155387351	0
2	3510	3403.899922104322	1
2	3511	3405.088446103776	0
2	3530	3444.39201502839	1
2	3531	3444.472011316808	0
2	3550	3472.648805885318	1
2	3551	3472.871719362691	0
2	3560	3474.637264313644	1
2	3561	3475.896617998591	0
2	3575	3484.981116874664	1
2	3576	3485.167208354639	0
2	3595	3507.016426113409	1
2	3596	3507.48019682873	0
2	3605	3510.862524433146	1
2	3606	3512.102818736182	0
2	3670	3607.646603209319	1
2	3671	3608.615333823326	0
2	3725	3669.587644225	1
2	3726	3670.590019723307	0
2	3730	3670.733615833761	1
2	3732	3670.784665721217	2
2	3733	3672.16596674053	1
2	3737	3672.818183745268	2
2	3738	3673.461629513558	1
2	3742	3673.723081881711	2
2	3744	3674.256432740154	3
2	3745	3674.752923898678	2
2	3748	3676.49681912465	1
2	3751	3678.101178967301	0
2	3755	3679.149787020936	1
2	3756	3680.008021406364	0
2	3765	3682.568354301851	1
2	3766	3684.123653728146	0
2	3770	3685.326075011578	1
2	3771	3685.663746079247	0
2	3810	3740.287127172553	1
2	3811	3741.584112537272	0
2	3820	3744.064207267323	1
2	3821	3745.539637186138	0
2	3830	3748.796582909634	1
2	3833	3750.384187065162	0
2	3837	3751.11678159436	1
2	3838	3752.195527736008	0
2	3842	3753.289158176713	1
2	3843	3753.878184532285	0
2	3850	3756.926049041803	1
2	3851	3757.178246769965	0
2	3860	3759.876964125756	1
2	3861	3760.572406542584	0
2	3875	3774.193939482888	1
2	3876	3775.502960066883	0
2	3890	3790.326874740684	1
2	3891	3791.063562479595	0
2	3895	3791.952707593002	1
2	3896	3792.555231285261	0
2	3905	3794.153537535917	1
2	3907	3794.610081519642	2
2	3908	3795.180172114985	1
2	3912	3796.430103261588	2
2	3913	3797.110545527169	1
2	3916	3798.743988261351	0
2	3920	3799.081072386808	1
2	3921	3800.357793047072	0
2	3927	3801.732933166021	1
2	3928	3802.051832581663	0
2	3932	3802.41690590549	1
2	3933	3803.524593362377	0
2	3960	3817.729786806558	1
2	3961	3818.73931198042	0
2	3990	3872.685702945968	1
2	3992	3872.780184063357	2
2	3993	3874.087977983576	1
2	3996	3875.444374907908	0
2	4015	3892.43882466916	1
2	4016	3892.892751581281	0
2	4070	3967.811391637084	1
2	4071	3969.175532449533	0
2	4075	3970.775879300264	1
2	4076	3970.784756132711	0
2	4080	3971.194322797991	1
2	4082	3971.517005572186	2
2	4083	3972.258864510928	1
2	4086	3974.199659219508	0
2	4095	3982.192842190842	1
2	4097	3982.756487982428	2
2	4099	3982.80353541726	3
2	4100	3983.146506626568	2
2	4104	3983.871956329192	3
2	4105	3984.572406613304	2
2	4109	3985.611478706691	3
2	4110	3986.472602430581	2
2	4114	3987.232635110956	3
2	4115	3988.042670785672	2
2	4119	3988.745659762924	3
2	4120	3989.281752915344	2
2	4123	3991.275887978858	1
2	4126	3992.827553074098	0
2	4130	3994.301796087697	1
2	4131	3994.502343760094	0
2	4175	4053.785623917486	1
2	4176	4054.741732541293	0
2	4180	4055.612917889717	1
2	4181	4056.53099811171	0
2	4220	4092.307904331455	1
2	4221	4093.091045849197	0
2	4235	4121.274886669635	1
2	4236	4121.559920440619	0
2	4240	4122.625552479461	1
2	4241	4123.1945587026	0
2	4305	4211.006382104432	1
2	4306	4211.453242363375	0
2	4322	4221.911724160001	1
2	4323	4222.766776503721	0
2	4335	4227.132154978513	1
2	4337	4227.767573496956	2
2	4338	4228.360823448154	1
2	4341	4229.619328195381	0
2	4350	4231.026777439746	1
2	4351	4232.38735282753	0
2	4355	4233.23649092879	1
2	4358	4234.271309879202	0
2	4365	4237.061179537535	1
2	4366	4237.901839066821	0
2	4405	4276.865245899682	1
2	4406	4277.787530622525	0
2	4432	4306.884064393187	1
2	4433	4307.011730168574	0
2	4460	4328.771627274118	1
2	4461	4329.979841120658	0
2	4495	4377.062535623163	1
2	4497	4377.429734376551	2
2	4498	4377.866177914055	1
2	4503	4379.372957483815	0
2	4510	4381.6947492663	1
2	4511	4382.224426047639	0
2	4515	4382.654499161954	1
2	4516	4383.67726202453	0
2	4525	4388.278749526906	1
2	4526	4390.140995247562	0
2	4532	4391.241622803701	1
2	4533	4391.731569948879	0
2	4540	4394.279821388472	1
2	4541	4394.954014902276	0
2	4560	4412.461502598885	1
2	4561	4413.707311236523	0
2	4580	4423.798850853709	1
2	4581	4424.545145888035	0
2	4595	4431.604243535668	1
2	4597	4432.084747677542	2
2	4598	4432.216158056134	1
2	4603	4433.84839619367	0
2	4615	4440.252388179057	1
2	4616	4440.728983042602	0
2	4620	4441.147800009165	1
2	4621	4442.264700327468	0
2	4625	4442.986607698774	1
2	4626	4443.511073132818	0
2	4630	4445.08524436967	1
2	4631	4445.315615651411	0
2	4685	4509.835958265471	1
2	4687	4509.956005275231	2
2	4688	4511.28208787274	1
2	4691	4512.88843847644	0
2	4710	4545.565857954562	1
2	4711	4545.954294840437	0
2	4735	4571.002191071975	1
2	4736	4571.014895933218	0
2	4785	4613.811652021213	1
2	4786	4614.587355994121	0
2	4852	4675.339055131455	1
2	4853	4675.623100741517	0
2	4860	4677.959296430386	1
2	4861	4678.871302615974	0
2	4875	4685.707920530685	1
2	4876	4686.354217544104	0
2	4890	4704.683740866119	1
2	4891	4705.220308072144	0
2	4895	4706.623286817923	1
2	4896	4706.741356840567	0
2	4975	4797.70117486503	1
2	4976	4798.853601543716	0
2	5035	4867.045274444125	1
2	5036	4867.097617758323	0
2	5065	4897.916332022717	1
2	5066	4898.496482740695	0
2	5075	4901.36887111658	1
2	5076	4902.70300132504	0
2	5080	4903.494660286387	1
2	5081	4904.059397389202	0
2	5085	4904.556911630812	1
2	5086	4905.33882244101	0
2	5095	4910.527495296243	1
2	5096	4910.541413105242	0
2	5100	4911.208847231369	1
2	5101	4912.107090848461	0
2	5125	4928.312292354301	1
2	5127	4928.842065790149	2
2	5128	4929.298143210025	1
2	5131	4931.045153798485	0
2	5150	4955.171409959103	1
2	5151	4956.143271271042	0
2	5155	4957.002846282157	1
2	5156	4957.421306892015	0
2	5305	5120.38451201624	1
2	5306	5121.04356962527	0
2	5320	5125.086032195954	1
2	5321	5125.930012760736	0
2	5345	5145.18977323607	1
2	5347	5146.072314278459	2
2	5348	5146.07572920219	1
2	5351	5147.469765576804	0
2	5355	5148.064693887293	1
2	5356	5149.415579275126	0
2	5360	5149.980936610163	1
2	5362	5150.037598358159	2
2	5363	5151.213342749039	1
2	5366	5152.583282116512	0
2	5390	5175.859920975009	1
2	5391	5176.396202948463	0
2	5465	5245.817271358926	1
2	5466	5246.131112514005	0
2	5470	5246.636165490265	1
2	5472	5246.953316499278	2
2	5473	5247.349720410758	1
2	5476	5249.031393410766	0
2	5485	5278.154928831643	1
2	5486	5278.398527367341	0
2	5515	5333.815372293074	1
2	5516	5334.098140050323	0
2	5520	5334.972719410393	1
2	5521	5335.993493094892	0
2	5570	5391.076748823808	1
2	5573	5392.508206041384	0
2	5585	5396.979834053585	1
2	5586	5397.131911112988	0
2	5622	5423.171049361429	1
2	5623	5423.73325943015	0
2	5650	5439.966429657841	1
2	5651	5440.054483643294	0
2	5680	5463.459109734552	1
2	5681	5463.895924467586	0
2	5685	5464.463623591046	1
2	5686	5465.590219872437	0
2	5690	5465.778163107495	1
2	5691	5467.15047718919	0
2	5720	5487.218484444455	1
2	5721	5487.332387202069	0
2	5725	5488.672146089272	1
2	5726	5489.016032239631	0
2	5765	5558.111111375482	1
2	5766	5559.119870732196	0
2	5805	5594.070068363624	1
2	5806	5594.487394404808	0
2	5810	5595.594094464098	1
2	5811	5595.922758872831	0
2	5815	5596.903371405322	1
2	5816	5597.408114136407	0
2	5840	5604.344951193389	1
2	5841	5605.865262131289	0
2	5845	5606.463726521336	1
2	5846	5607.727743880347	0
2	5855	5610.679089387099	1
2	5856	5611.99749866546	0
2	5875	5625.059540277546	1
2	5877	5625.06512309117	2
2	5878	5626.698393146758	1
2	5881	5628.326808802289	0
2	5895	5636.223169525281	1
2	5897	5636.325414105646	2
2	5898	5636.832810752482	1
2	5902	5638.550290127455	2
2	5903	5638.76697503274	1
2	5906	5640.599349757672	0
2	5925	5657.761843442056	1
2	5926	5659.165384196988	0
2	5935	5663.10382028245	1
2	5936	5664.250400852321	0
2	5940	5664.886445823695	1
2	5941	5666.013938614449	0
2	5955	5685.889702815256	1
2	5956	5686.297426417065	0
2	5995	5757.586470050942	1
2	5996	5757.633514535717	0
2	6040	5789.816393233234	1
2	6042	5790.923184745736	2
2	6043	5791.178165186001	1
2	6047	5791.36953044225	2
2	6049	5791.6306381987	3
2	6051	5792.12197913803	4
2	6052	5792.541945333583	3
2	6055	5794.260748953549	2
2	6060	5796.149638275606	1
2	6063	5797.622043205229	0
2	6070	5800.376793752454	1
2	6071	5800.861045977277	0
2	6075	5802.200305426765	1
2	6076	5802.3113071449	0
2	6090	5808.51181457725	1
2	6091	5809.768018553118	0
2	6205	5925.623852738386	1
2	6206	5926.312012173697	0
2	6245	5978.520996394225	1
2	6246	5979.157115180431	0
2	6250	5979.961457928485	1
2	6251	5980.719168496704	0
2	6260	5983.584371525061	1
2	6261	5984.579488711689	0
2	6285	6003.088400202195	1
2	6286	6003.504629166867	0
2	6290	6004.184768675169	1
2	6291	6005.329746062192	0
2	6295	6005.413618852425	1
2	6296	6007.070107893715	0
2	6300	6007.882068384788	1
2	6301	6008.6992988304	0
2	6370	6090.811337925806	1
2	6371	6091.958933751624	0
2	6390	6105.767286663395	1
2	6391	6106.211221179648	0
2	6395	6106.954708196871	1
2	6396	6107.858273542768	0
2	6420	6141.943764264317	1
2	6421	6143.489280941446	0
2	6445	6161.420593903704	1
2	6446	6161.610267336789	0
2	6450	6162.798282054239	1
2	6451	6163.577688564296	0
2	6460	6166.192700981238	1
2	6461	6166.750479263957	0
2	6465	6167.186983667098	1
2	6466	6168.55745063867	0
2	6480	6199.090564540312	1
2	6481	6199.933275311056	0
2	6485	6201.137919113588	1
2	6486	6201.305183832336	0
2	6525	6242.797516172831	1
2	6526	6243.818006190632	0
2	6550	6263.228863415816	1
2	6552	6263.591180222279	2
2	6553	6264.993959943296	1
2	6556	6266.330648304799	0
2	6580	6276.053886527889	1
2	6581	6276.610712014549	0
2	6690	6422.398941176521	1
2	6691	6423.552439552247	0
2	6700	6425.903686271302	1
2	6701	6426.601045385636	0
2	6720	6459.357892175511	1
2	6721	6459.409216997474	0
2	6730	6462.001390906608	1
2	6731	6463.381646314255	0
2	6740	6467.117050377055	1
2	6741	6467.670362480052	0
2	6785	6522.74582410696	1
2	6786	6523.832636888208	0
2	6805	6535.963730406399	1
2	6806	6536.820383287737	0
2	6835	6573.476951157313	1
2	6836	6573.862650157592	0
2	6850	6579.966083849893	1
2	6851	6581.347961681258	0
2	6875	6606.280439699959	1
2	6876	6607.465403904114	0
2	6905	6642.685004821743	1
2	6906	6643.498463056929	0
2	6910	6644.914185219588	1
2	6911	6645.352292333677	0
2	6920	6652.443902009685	1
2	6921	6653.740490970792	0
2	6930	6657.411472307923	1
2	6933	6658.817219860296	0
2	6940	6660.941947128243	1
2	6942	6661.864289420172	2
2	6943	6662.311959441195	1
2	6946	6663.922850923056	0
2	6965	6692.29279177447	1
2	6968	6693.202441015449	0
2	6972	6694.140585693165	1
2	6973	6694.740238193218	0
2	6980	6696.956822247305	1
2	6981	6697.507231594231	0
2	7040	6772.693547621986	1
2	7041	6774.290136063388	0
2	7155	6939.785084616462	1
2	7156	6940.537763511999	0
2	7180	6966.401993128722	1
2	7181	6967.150832391313	0
2	7192	6971.743839131181	1
2	7193	6972.250128092742	0
2	7220	6984.287122566412	1
2	7221	6984.641520310208	0
2	7230	6989.067505246707	1
2	7231	6989.608707996569	0
2	7275	7037.724662027329	1
2	7276	7038.059178204353	0
2	7280	7039.035868278977	1
2	7281	7039.708201560828	0
2	7295	7045.700232563726	1
2	7296	7047.459185959654	0
2	7300	7047.474897095052	1
2	7301	7049.401773360627	0
2	7305	7049.503481036181	1
2	7306	7051.050246677989	0
2	7320	7063.631150358278	1
2	7321	7064.735971733568	0
2	7380	7145.565840529484	1
2	7382	7146.132672186776	2
2	7383	7146.60187894472	1
2	7388	7148.3628217866	0
2	7392	7149.751088996479	1
2	7393	7149.976278209436	0
2	7397	7150.117894011471	1
2	7398	7151.189755110192	0
2	7430	7196.458885863454	1
2	7431	7196.829924246021	0
2	7450	7206.842113798486	1
2	7451	7207.876637476026	0
2	7470	7216.391845344156	1
2	7471	7217.607335331955	0
2	7505	7286.607243795763	1
2	7506	7287.834284134402	0
2	7550	7337.160595830513	1
2	7552	7337.64939799701	2
2	7553	7338.395659789765	1
2	7557	7338.745346802489	2
2	7558	7339.713528121212	1
2	7562	7341.503235141591	2
2	7563	7341.659355327809	1
2	7566	7343.170935051279	0
2	7570	7344.118927829347	1
2	7571	7344.702676978471	0
2	7600	7367.088268795598	1
2	7602	7367.174789157969	2
2	7603	7368.601550300591	1
2	7606	7369.894165453114	0
2	7620	7382.639751885272	1
2	7621	7382.997660731348	0
2	7655	7415.879743712662	1
2	7656	7416.627251144309	0
2	7660	7416.757169566181	1
2	7662	7417.638535860105	2
2	7663	7418.410595546473	1
2	7666	7420.284336858425	0
2	7700	7452.842599606791	1
2	7701	7454.619033259389	0
2	7735	7502.048365723962	1
2	7736	7502.348837485936	0
2	7740	7503.054783829676	1
2	7741	7504.159913975586	0
2	7790	7549.024998047479	1
2	7791	7550.171997019784	0
2	7840	7586.314284783352	1
2	7841	7588.033131245881	0
2	7900	7680.961461578614	1
2	7901	7682.522780118643	0
2	7940	7728.127954941595	1
2	7942	7728.54637421253	2
2	7943	7729.21277863389	1
2	7947	7729.377312883883	2
2	7950	7730.52380511785	1
2	7953	7732.16668170305	0
2	7957	7732.707876530301	1
2	7958	7734.161291859541	0
2	7962	7735.057443591173	1
2	7963	7735.898027293254	0
2	7970	7739.522026634447	1
2	7971	7739.744335214663	0
2	8000	7775.35809285726	1
2	8001	7777.033260944509	0
2	8025	7819.421048458043	1
2	8026	7820.436518193389	0
2	8030	7821.155449896374	1
2	8031	7821.815932409445	0
2	8035	7822.139626565157	1
2	8037	7822.826692138456	2
2	8038	7823.172439108582	1
2	8042	7824.136992103287	2
2	8043	7824.646680981831	1
2	8047	7824.716953874881	2
2	8048	7826.478349856452	1
2	8055	7828.226718228103	0
2	8059	7829.682734023632	1
2	8060	7829.713345766233	0
2	8067	7831.998657972573	1
2	8068	7832.929253266545	0
2	8105	7879.356843072717	1
2	8106	7879.838147898371	0
2	8165	7948.031354611151	1
2	8166	7948.7884606224	0
2	8185	7963.57231237189	1
2	8186	7964.242663274895	0
2	8195	7977.770243066619	1
2	8196	7977.859232374151	0
2	8260	8039.12943269414	1
2	8262	8040.273223239976	2
2	8263	8040.976958427517	1
2	8267	8041.565528636443	2
2	8269	8041.827407787009	3
2	8270	8042.653759468658	2
2	8274	8044.22087920433	3
2	8275	8044.271369029334	2
2	8278	8045.788668288974	1
2	8281	8047.242225412218	0
2	8325	8099.669289085872	1
2	8326	8101.184858441717	0
2	8330	8102.387531512086	1
2	8331	8102.595121273204	0
2	8360	8154.633958918858	1
2	8361	8156.517498347253	0
2	8370	8158.525165000565	1
2	8372	8159.844198993358	2
2	8373	8160.218669313655	1
2	8377	8161.202997640364	2
2	8379	8161.2280125408	3
2	8380	8162.014107040406	2
2	8383	8163.592306442835	1
2	8387	8164.009799320803	2
2	8389	8164.300398350154	3
2	8390	8165.580603166015	2
2	8393	8167.481834685334	1
2	8396	8168.695910888069	0
2	8400	8168.737735856662	1
2	8401	8170.614083752126	0
2	8415	8195.637962960149	1
2	8416	8195.871323526335	0
2	8420	8196.700276791689	1
2	8421	8197.762162197066	0
2	8450	8209.323114452016	1
2	8451	8210.59739065032	0
2	8505	8309.102808985021	1
2	8506	8309.17285402027	0
2	8575	8383.055605736186	1
2	8578	8383.760506560023	0
2	8582	8384.568569694961	1
2	8583	8385.74499681976	0
2	8590	8388.381859703592	1
2	8592	8388.592825161238	2
2	8593	8389.032269829254	1
2	8596	8390.4165636481	0
2	8620	8409.596226444993	1
2	8621	8411.262509495044	0
2	8625	8411.659261596104	1
2	8626	8412.924713418657	0
2	8630	8414.192561652478	1
2	8631	8414.670086286986	0
2	8680	8480.538945579286	1
2	8681	8481.000597419095	0
2	8785	8599.745298079566	1
2	8786	8601.237306936114	0
2	8795	8603.449577497447	1
2	8796	8604.654434108017	0
2	8845	8694.20393943813	1
2	8846	8695.083750381045	0
2	8890	8725.127261804871	1
2	8891	8726.202303896805	0
2	8895	8726.290271229636	1
2	8896	8727.758212720005	0
2	8960	8813.516006291327	1
2	8961	8814.843033718256	0
2	8970	8821.81297720475	1
2	8971	8822.353109670904	0
2	8975	8822.691789174405	1
2	8976	8823.58261817294	0
2	8980	8823.970965794224	1
2	8981	8825.006537966158	0
2	8995	8841.460703992754	1
2	8996	8842.858890593885	0
2	9010	8851.925480086331	1
2	9012	8852.151122511927	2
2	9013	8852.999974371351	1
2	9016	8854.224601044178	0
2	9040	8869.144797387327	1
2	9041	8870.016697157984	0
2	9055	8891.406179467453	1
2	9056	8891.660577211349	0
2	9125	8944.642453575647	1
2	9126	8944.947595951886	0
2	9130	8945.357242108257	1
2	9131	8946.262584196956	0
2	9160	8974.767911946487	1
2	9161	8976.459045685104	0
2	9320	9141.610937042023	1
2	9321	9141.887327110651	0
2	9325	9142.481507760676	1
2	9326	9143.772562023136	0
2	9330	9144.611201223125	1
2	9331	9145.533013511519	0
2	9355	9165.875503451648	1
2	9358	9167.470231752907	0
2	9365	9170.015987058617	1
2	9366	9170.908837949921	0
2	9380	9186.006526773886	1
2	9381	9187.219976525632	0
2	9390	9189.045067300342	1
2	9391	9190.575123430294	0
2	9410	9201.907061579798	1
2	9413	9202.105975425583	0
2	9417	9202.193270007802	1
2	9419	9203.190643853088	2
2	9420	9204.013310983372	1
2	9423	9205.870645722156	0
2	9430	9207.823807963052	1
2	9431	9208.680294454252	0
2	9465	9238.086423178539	1
2	9466	9238.368350576947	0
2	9490	9269.752126362822	1
2	9491	9269.79601805521	0
2	9495	9270.234685462562	1
2	9496	9271.19807286741	0
2	9520	9340.043062104663	1
2	9521	9340.98367825533	0
2	9525	9341.519471268479	1
2	9526	9342.294710517588	0
2	9530	9343.485297737622	1
2	9531	9343.550229035231	0
2	9565	9375.721084120065	1
2	9567	9376.44329479472	2
2	9568	9376.478716656869	1
2	9573	9377.970957447706	0
2	9577	9378.981735655747	1
2	9578	9379.319436334377	0
2	9595	9387.311428311516	1
2	9597	9387.632421198586	2
2	9598	9388.848215762983	1
2	9601	9390.296769944291	0
2	9605	9390.602488266269	1
2	9607	9390.829375867767	2
2	9608	9392.24736779825	1
2	9612	9393.163162498993	2
2	9614	9393.322705647478	3
2	9615	9393.82432886203	2
2	9618	9395.21557208718	1
2	9622	9396.529432276085	2
2	9623	9396.971842390571	1
2	9626	9398.94273084243	0
2	9640	9404.492080046566	1
2	9641	9405.546182165023	0
2	9650	9413.580058649879	1
2	9651	9414.458392475642	0
2	9705	9503.7594177982	1
2	9706	9504.45299765807	0
2	9710	9505.169008813205	1
2	9711	9505.923218542751	0
2	9720	9509.188409699805	1
2	9721	9509.629783655064	0
2	9740	9528.051429468952	1
2	9741	9529.316235815841	0
2	9760	9541.87756577759	1
2	9761	9543.254322303556	0
2	9765	9543.302258172333	1
2	9766	9545.009122217357	0
2	9770	9546.059798621363	1
2	9771	9546.867642803773	0
2	9785	9569.626608013266	1
2	9786	9570.003274962626	0
2	9797	9578.321376833504	1
2	9798	9578.759334326967	0
2	9840	9631.784835877877	1
2	9841	9632.548170649877	0
2	9920	9723.374469022315	1
2	9921	9725.098817380075	0
2	9925	9725.873327783388	1
2	9927	9726.291981178419	2
2	9928	9727.070943798241	1
2	9931	9728.339255026099	0
2	9980	9796.820507127048	1
2	9981	9796.904224941178	0
2	10060	9888.387622730058	1
2	10061	9889.388559146001	0
2	10085	9902.282630003484	1
2	10086	9903.454246042541	0
2	10097	9911.629952118617	1
2	10098	9912.000935426353	0
2	10135	9974.123219773491	1
2	10136	9974.308644577867	0
2	10220	10086.603423693681	1
2	10222	10086.866429351464	2
2	10223	10086.886038211979	1
2	10227	10087.253115456503	2
2	10229	10087.954531026316	3
2	10230	10088.388547020093	2
2	10233	10089.912915259846	1
2	10237	10090.464317806669	2
2	10238	10091.497764583923	1
2	10241	10093.395943603538	0
2	10250	10098.549652457544	1
2	10251	10099.770327438442	0
2	10265	10112.127466635068	1
2	10266	10112.771649371156	0
2	10300	10161.901782598949	1
2	10301	10162.065716065689	0
2	10305	10163.140683954768	1
2	10306	10163.267421662099	0
2	10330	10180.474448083973	1
2	10331	10181.447301591098	0
2	10360	10205.421817629431	1
2	10361	10206.721876554501	0
2	10375	10220.838121861887	1
2	10376	10221.301330735584	0
2	10395	10237.520541831217	1
2	10396	10238.012156406323	0
2	10400	10238.457844761399	1
2	10401	10239.650410192738	0
2	10445	10299.384384484843	1
2	10446	10299.879040959269	0
2	10455	10303.212157606476	1
2	10456	10303.709810057197	0
2	10462	10305.04727726807	1
2	10463	10305.612319686551	0
2	10467	10305.980742236858	1
2	10468	10307.384644116562	0
2	10472	10308.20683052693	1
2	10473	10309.156902051445	0
2	10477	10309.976677756558	1
2	10478	10310.605839085866	0
2	10482	10310.839611409375	1
2	10484	10310.900255721778	2
2	10485	10312.101754738305	1
2	10490	10313.823046976801	0
2	10497	10315.601887869581	1
2	10498	10317.223211143452	0
2	10540	10363.525087776491	1
2	10541	10364.5309446714	0
2	10545	10365.733907919729	1
2	10546	10365.821100436069	0
2	10555	10368.71515834012	1
2	10556	10368.792450335315	0
2	10565	10376.44171724752	1
2	10566	10376.944402413476	0
2	10570	10377.208521391636	1
2	10571	10378.592988534491	0
2	10630	10426.229767512216	1
2	10631	10426.805485762056	0
2	10645	10432.493378004673	1
2	10647	10432.756937945524	2
2	10648	10433.522740689043	1
2	10653	10435.017776431825	0
2	10660	10437.514650307622	1
2	10661	10438.3853708844	0
2	10665	10438.893206724709	1
2	10668	10439.695157488186	0
2	10690	10452.787920182187	1
2	10691	10454.353470867465	0
2	10700	10455.859202065611	1
2	10701	10456.862589974294	0
2	10705	10457.243599596519	1
2	10706	10458.629936442489	0
2	10715	10461.71185596598	1
2	10716	10462.603498084621	0
2	10735	10489.585863855943	1
2	10736	10489.74127367124	0
2	10750	10494.678032273164	1
2	10751	10495.755974744564	0
2	10765	10505.848625452454	1
2	10766	10506.806096668743	0
2	10770	10508.294806755786	1
2	10771	10508.370869106628	0
2	10820	10569.719974263464	1
2	10821	10570.886904599069	0
2	10830	10573.514125552067	1
2	10831	10574.430661236894	0
2	10837	10575.597670306469	1
2	10838	10575.948333822031	0
2	10842	10577.140870213246	1
2	10843	10577.833526607071	0
2	10847	10577.852998043238	1
2	10848	10579.811886933287	0
2	10860	10585.442102667936	1
2	10861	10586.574914418112	0
2	10925	10657.347580482975	1
2	10926	10659.038885874808	0
2	10945	10677.317308916656	1
2	10946	10678.575770170616	0
2	10950	10679.502687589121	1
2	10951	10680.187751274744	0
2	10955	10680.737986176227	1
2	10956	10681.817558396423	0
2	10960	10682.342334329773	1
2	10961	10683.28380819224	0
2	11030	10740.388788592013	1
2	11031	10741.226127376962	0
2	11045	10751.546772185478	1
2	11046	10752.562147760805	0
2	11050	10753.124713368158	1
2	11051	10753.884230089974	0
2	11060	10758.427668748625	1
2	11061	10759.115645475117	0
2	11080	10767.574865515485	1
2	11081	10769.353590739634	0
2	11100	10783.817345218316	1
2	11103	10784.348062265512	0
2	11107	10784.622241653665	1
2	11108	10786.053117160347	0
2	11112	10786.712012877329	1
2	11113	10787.986586494778	0
2	11117	10789.063816554673	1
2	11118	10789.755018917878	0
2	11122	10791.027026750408	1
2	11123	10791.379914337803	0
2	11127	10792.251409660547	1
2	11128	10793.146184323017	0
2	11132	10795.053591707636	1
2	11133	10795.055486527678	0
2	11150	10802.414002054368	1
2	11151	10803.18363414624	0
2	11165	10813.287416196828	1
2	11166	10813.434825670902	0
2	11175	10817.904863489636	1
2	11176	10818.581675129327	0
2	11190	10828.195781224986	1
2	11191	10829.411670733797	0
2	11195	10829.460643993815	1
2	11198	10831.367586487899	0
2	11202	10832.923537576105	1
2	11203	10833.200711916196	0
2	11207	10834.078828385681	1
2	11208	10835.178173633846	0
2	11212	10835.350616822986	1
2	11213	10837.161269047665	0
2	11217	10838.22914117628	1
2	11218	10839.153146859626	0
2	11230	10849.355807142244	1
2	11231	10850.06813147968	0
2	11270	10880.427760182675	1
2	11271	10881.88641940581	0
2	11285	10897.974421976135	1
2	11286	10898.959694112966	0
2	11290	10900.437991611489	1
2	11291	10900.955183097663	0
2	11300	10903.136294814637	1
2	11301	10904.750893564891	0
2	11320	10923.941194280914	1
2	11321	10924.614109499523	0
2	11325	10924.754078468708	1
2	11328	10926.496996357435	0
2	11335	10930.15983027276	1
2	11336	10930.34809358097	0
2	11340	10932.247934042283	1
2	11341	10932.300455881426	0
2	11360	10940.377697458342	1
2	11361	10942.294683806802	0
2	11365	10942.48436171542	1
2	11366	10943.801738628204	0
2	11370	10944.089725375605	1
2	11373	10945.709919763374	0
2	11377	10946.109061534136	1
2	11378	10947.587432031724	0
2	11390	10954.574524892297	1
2	11391	10955.641492432701	0
2	11405	10968.249218462764	1
2	11406	10969.786039426058	0
2	11425	10976.34001181885	1
2	11426	10976.521040206229	0
2	11445	11008.873388432385	1
2	11446	11009.341516785764	0
2	11460	11028.637169057685	1
2	11461	11029.226369960279	0
2	11470	11044.471340975326	1
2	11471	11044.857964127839	0
2	11500	11100.690325734614	1
2	11501	11101.607479237027	0
2	11525	11136.780927306074	1
2	11527	11138.101582808194	2
2	11528	11138.531219592306	1
2	11532	11138.674552702079	2
2	11533	11139.958176101173	1
2	11537	11140.694393742527	2
2	11539	11141.106198187307	3
2	11540	11141.654005523945	2
2	11544	11142.055791508012	3
2	11545	11142.962193738843	2
2	11548	11144.43923915344	1
2	11551	11145.859814215626	0
2	11555	11146.604830151849	1
2	11556	11147.666637700598	0
2	11575	11193.078261955755	1
2	11576	11193.220749577815	0
2	11605	11208.987281913036	1
2	11606	11209.910515430152	0
2	11620	11233.390049195732	1
2	11621	11234.74172749295	0
2	11630	11242.992328060367	1
2	11631	11243.9463842466	0
2	11635	11245.203813302815	1
2	11636	11245.22534108418	0
2	11655	11263.442709340976	1
2	11656	11263.524447036918	0
2	11660	11263.579333469259	1
2	11661	11264.745468760852	0
2	11675	11274.574624364519	1
2	11676	11276.042844959779	0
2	11690	11284.984072478907	1
2	11691	11286.021382591137	0
2	11695	11286.615162446316	1
2	11696	11287.69608028681	0
2	11735	11316.547861397227	1
2	11736	11317.453270623246	0
2	11740	11318.012927915312	1
2	11741	11319.447870502034	0
2	11775	11357.529091822227	1
2	11776	11358.354246314249	0
2	11780	11358.976683433824	1
2	11781	11360.326282542019	0
2	11820	11429.15369956399	1
2	11822	11429.299654145773	2
2	11824	11429.833007468553	3
2	11825	11429.921438498981	2
2	11829	11431.418041817997	3
2	11830	11431.579968710802	2
2	11833	11433.537323533371	1
2	11837	11433.876055035943	2
2	11838	11434.987049180083	1
2	11842	11436.01208135063	2
2	11843	11436.439445414022	1
2	11846	11438.272080607154	0
2	11930	11515.616590608505	1
2	11931	11515.822521948686	0
2	11935	11516.561496025735	1
2	11938	11517.49291882558	0
2	11950	11524.95966101907	1
2	11951	11526.458108393999	0
2	12005	11620.7044117706	1
2	12006	11621.382036419175	0
2	12050	11678.920718033756	1
2	12051	11679.903912352323	0
2	12055	11679.948154347909	1
2	12056	11681.750263916999	0
2	12060	11682.955320591314	1
2	12061	11683.080770377926	0
2	12070	11685.977647987584	1
2	12071	11686.737123489766	0
2	12110	11736.709982239905	1
2	12111	11736.774667607003	0
2	12115	11737.972729425977	1
2	12116	11738.532361707405	0
2	12120	11738.701382516047	1
2	12121	11739.833221514278	0
2	12130	11741.901203909167	1
2	12132	11742.02331668609	2
2	12133	11743.009653984685	1
2	12137	11744.072851092589	2
2	12138	11744.302892949548	1
2	12141	11746.181977417995	0
2	12150	11751.231222015153	1
2	12151	11751.290487438197	0
2	12180	11794.39668109083	1
2	12181	11794.81367564681	0
2	12190	11798.949878250453	1
2	12191	11799.675731350288	0
2	12265	11863.966934374683	1
2	12267	11864.293314874288	2
2	12268	11864.778339878594	1
2	12271	11866.348568215345	0
2	12285	11894.140380550271	1
2	12286	11894.764445948815	0
2	12290	11895.101870255765	1
2	12291	11896.722922777971	0
2	12295	11897.003618498061	1
2	12297	11897.332206879004	2
2	12298	11898.436287306649	1
2	12301	11900.270777631578	0
2	12305	11901.583786315106	1
2	12306	11901.670964242545	0
2	12320	11915.628226109174	1
2	12321	11916.004101544671	0
2	12330	11923.503123061642	1
2	12332	11924.349424648802	2
2	12333	11924.885307378827	1
2	12336	11926.102758099644	0
2	12360	11938.820202744207	1
2	12361	11939.049940852759	0
2	12375	11946.410174909058	1
2	12378	11947.831879175425	0
2	12410	11967.808928448512	1
2	12411	11969.251087977551	0
2	12420	11990.811395221439	1
2	12421	11991.382503709231	0
2	12427	11992.319818908457	1
2	12428	11992.992083144222	0
2	12435	11994.807127233368	1
2	12436	11995.887748773616	0
2	12455	12004.305757634777	1
2	12457	12005.478427732574	2
2	12458	12005.600704075934	1
2	12461	12007.332435374127	0
2	12485	12029.202280170887	1
2	12486	12030.532078892988	0
2	12520	12080.721703056472	1
2	12521	12082.266940088301	0
2	12535	12104.725029972948	1
2	12538	12105.824237547225	0
2	12555	12116.096644906804	1
2	12556	12116.929674901347	0
2	12560	12118.352694384757	1
2	12561	12118.897857555653	0
2	12575	12124.157456847428	1
2	12576	12125.164688326484	0
2	12600	12138.231965177652	1
2	12601	12139.42208443804	0
2	12640	12177.729850658721	1
2	12641	12179.048967425023	0
2	12655	12203.017854692614	1
2	12656	12203.197748826737	0
2	12685	12227.147642083184	1
2	12686	12227.257445637326	0
2	12740	12274.635796432273	1
2	12743	12275.503069711489	0
2	12760	12285.810333794529	1
2	12762	12285.993409680457	2
2	12763	12286.338389637411	1
2	12767	12287.167415955476	2
2	12770	12287.882312591836	1
2	12773	12289.599417447388	0
2	12777	12289.941662439223	1
2	12778	12291.453345493875	0
2	12810	12331.716074051302	1
2	12811	12333.585619561726	0
2	12830	12374.548904075589	1
2	12831	12375.12734706034	0
2	12835	12375.423008441919	1
2	12836	12376.439092850918	0
2	12865	12399.619065766664	1
2	12866	12401.201301271312	0
2	12870	12401.973813127652	1
2	12871	12402.75211289379	0
2	12875	12404.417345952068	1
2	12876	12404.501993837982	0
2	12885	12409.205244935714	1
2	12887	12409.242461797756	2
2	12888	12410.608211399934	1
2	12891	12412.298484044469	0
2	12900	12419.278817483778	1
2	12901	12420.017332922751	0
2	12960	12477.487758221658	1
2	12962	12478.14196783509	2
2	12963	12478.55432369514	1
2	12966	12480.293397588382	0
2	12970	12480.478409456583	1
2	12972	12480.878282738706	2
2	12974	12481.483065012256	3
2	12975	12481.775489578495	2
2	12978	12483.421125028568	1
2	12981	12485.211835265631	0
2	13000	12493.293641642797	1
2	13001	12494.925356068183	0
2	13010	12507.715263895414	1
2	13011	12509.131077131601	0
2	13040	12522.298977335706	1
2	13041	12523.694740725324	0
2	13065	12551.744103072703	1
2	13066	12551.847629958781	0
2	13115	12649.817982997568	1
2	13116	12651.286774057396	0
2	13135	12668.308259944593	1
2	13136	12668.995465116997	0
2	13210	12739.009536384113	1
2	13211	12740.657447595111	0
2	13220	12743.544247564681	1
2	13221	12744.057963912185	0
2	13285	12864.124846207745	1
2	13287	12864.465419507393	2
2	13288	12865.592063378791	1
2	13292	12866.879901963378	2
2	13293	12867.338910762469	1
2	13296	12869.334193520496	0
2	13300	12869.659381949617	1
2	13301	12870.905151202778	0
2	13310	12876.824605370199	1
2	13311	12877.379540121113	0
2	13315	12878.878354485781	1
2	13316	12879.221187509899	0
2	13337	12888.178621843027	1
2	13338	12889.998195104727	0
2	13345	12892.552987911776	1
2	13346	12893.294181866066	0
2	13350	12894.225981633713	1
2	13351	12894.502781338112	0
2	13360	12901.417604592048	1
2	13361	12902.399425861703	0
2	13415	12971.758488234782	1
2	13416	12972.889529180603	0
2	13470	13047.863913011586	1
2	13472	13047.993415372656	2
2	13473	13048.81180016927	1
2	13477	13049.723428607628	2
2	13479	13049.873274917771	3
2	13480	13050.584344847198	2
2	13483	13051.99230776846	1
2	13486	13053.589140065644	0
2	13490	13054.857271180332	1
2	13491	13054.859702768434	0
2	13500	13060.623675535544	1
2	13501	13061.023095143894	0
2	13520	13086.15601926013	1
2	13523	13087.582515089265	0
2	13530	13090.000001284758	1
2	13531	13090.594164054892	0
2	13550	13110.452402030542	1
2	13551	13111.843021019377	0
2	13570	13124.306647807771	1
2	13571	13125.863982714756	0
2	13580	13135.030769077972	1
2	13581	13136.646692096716	0
2	13595	13142.057139341281	1
2	13596	13142.889230955508	0
2	13660	13194.940200612583	1
2	13661	13195.41186416661	0
2	13700	13229.899885663364	1
2	13701	13230.531847704162	0
2	13705	13230.964859764617	1
2	13707	13231.031585908678	2
2	13708	13232.136538479996	1
2	13711	13233.692726197613	0
2	13760	13278.681796090984	1
2	13761	13279.420306445614	0
2	13790	13293.321067504622	1
2	13791	13293.478004662327	0
2	13800	13298.539145421335	1
2	13801	13299.509342995719	0
2	13855	13373.240929436789	1
2	13857	13373.442063655715	2
2	13858	13374.737676657966	1
2	13861	13376.162214610769	0
2	13900	13416.205774094883	1
2	13901	13416.612873062051	0
2	13940	13445.06786291759	1
2	13941	13446.006996340275	0
2	13945	13446.259320596405	1
2	13947	13447.064273694215	2
2	13948	13447.802176017657	1
2	13951	13449.353571363509	0
2	13965	13453.418212629253	1
2	13966	13454.973396272674	0
2	13970	13455.423559849364	1
2	13971	13456.899538837835	0
2	14010	13499.246075255049	1
2	14012	13500.007941781694	2
2	14014	13500.280934104269	3
2	14017	13500.573013366515	2
2	14020	13502.032055297809	1
2	14023	13503.58446277784	0
2	14030	13506.614392417048	1
2	14031	13506.682184799703	0
2	14040	13508.617610846059	1
2	14041	13509.916283808591	0
2	14075	13545.119085864833	1
2	14076	13545.175293004218	0
2	14080	13545.200968324805	1
2	14081	13547.158123108636	0
2	14085	13548.407443317199	1
2	14086	13548.854789722788	0
2	14095	13552.159469591412	1
2	14096	13553.270045469505	0
2	14130	13589.758211638117	1
2	14131	13589.835276752879	0
2	14135	13590.532132642371	1
2	14136	13591.770102976245	0
2	14160	13621.290577513327	1
2	14161	13621.425932634798	0
2	14190	13649.049835422067	1
2	14191	13650.52785489914	0
2	14220	13683.200888191248	1
2	14221	13683.733644177947	0
2	14230	13693.607399144971	1
2	14231	13694.040612192656	0
2	14255	13716.290957021052	1
2	14256	13717.439406386041	0
2	14280	13755.549512881087	1
2	14281	13756.996177549061	0
2	14295	13766.638843460359	1
2	14297	13766.833837430697	2
2	14298	13767.099016834556	1
2	14301	13768.401921982079	0
2	14305	13768.571790359693	1
2	14306	13769.81613498865	0
2	14310	13770.590401487732	1
2	14311	13771.099609499744	0
2	14325	13780.241529511639	1
2	14327	13780.714189788875	2
2	14329	13780.727903652936	3
2	14330	13781.452936277343	2
2	14333	13782.701073979391	1
2	14337	13783.225370937005	2
2	14338	13784.148674027613	1
2	14341	13785.886114895149	0
2	14345	13785.926893122859	1
2	14347	13786.086227718345	2
2	14349	13786.853709052184	3
2	14350	13787.664733681447	2
2	14353	13789.58477337136	1
2	14357	13790.647707647527	2
2	14358	13790.965083602993	1
2	14363	13792.785954140676	0
2	14367	13793.347264132181	1
2	14368	13794.665806786334	0
2	14377	13796.247632619572	1
2	14378	13798.007631224385	0
2	14390	13820.143154026914	1
2	14391	13821.279602245765	0
2	14415	13835.85899563441	1
2	14417	13836.814242167675	2
2	14418	13837.72446722238	1
2	14422	13838.444710419858	2
2	14423	13839.342247872228	1
2	14426	13841.187286950635	0
2	14445	13849.6853074646	1
2	14446	13851.003004973895	0
2	14450	13852.911021780495	1
2	14451	13852.946500380664	0
2	14455	13853.532632082528	1
2	14456	13854.334991356312	0
2	14460	13854.399299425761	1
2	14461	13855.611258971831	0
2	14492	13884.22718861159	1
2	14493	13884.243445954772	0
2	14497	13885.842347365532	1
2	14499	13885.911486918093	2
2	14500	13886.098609115297	1
2	14504	13886.389834505831	2
2	14506	13887.684568845321	3
2	14507	13888.094222146014	2
2	14510	13889.298625202032	1
2	14514	13889.423411425072	2
2	14516	13890.447480071038	3
2	14517	13890.70036458459	2
2	14520	13891.972454919222	1
2	14524	13892.994746964404	2
2	14525	13893.699016093205	1
2	14529	13893.81231142271	2
2	14530	13895.547337543334	1
2	14534	13897.111924635576	2
2	14535	13897.333568332831	1
2	14538	13898.912290000657	0
2	14635	14011.541068014369	1
2	14636	14012.357606998411	0
2	14665	14035.551913324957	1
2	14666	14037.031126204952	0
2	14675	14043.086288459673	1
2	14676	14043.507784616464	0
2	14680	14044.200322021358	1
2	14682	14045.06728795755	2
2	14683	14045.233555822336	1
2	14687	14045.36883616082	2
2	14688	14046.651216678769	1
2	14692	14048.308202666282	2
2	14693	14048.579000330605	1
2	14698	14050.484748265222	0
2	14702	14051.098941671357	1
2	14704	14051.342434659495	2
2	14705	14052.45412220832	1
2	14708	14053.834792707377	0
2	14715	14055.924484016919	1
2	14716	14056.71732265994	0
2	14735	14081.671648541072	1
2	14736	14082.084809228083	0
2	14745	14097.326467477949	1
2	14746	14098.389545037821	0
2	14795	14148.148613215001	1
2	14796	14149.729390653216	0
2	14800	14149.835716194858	1
2	14801	14151.538260241405	0
2	14805	14153.234956887338	1
2	14806	14153.247491874167	0
2	14820	14174.730491031162	1
2	14821	14175.440691543388	0
2	14845	14190.404505834107	1
2	14846	14191.560613522831	0
2	14875	14207.73711980768	1
2	14876	14207.860439441973	0
2	14890	14211.360965716592	1
2	14891	14212.560656031986	0
2	14905	14219.881973653401	1
2	14906	14221.452093189551	0
2	14925	14238.083095418573	1
2	14926	14239.498871012435	0
2	14930	14239.699220579279	1
2	14931	14240.917879108184	0
2	14935	14241.980537971232	1
2	14936	14242.647380400666	0
2	14945	14250.879722738839	1
2	14946	14251.244850751455	0
2	14960	14262.444199832941	1
2	14962	14262.695437859112	2
2	14963	14264.181061698293	1
2	14966	14266.152756746096	0
2	15000	14294.211869726612	1
2	15001	14295.584928498821	0
2	15010	14298.731829929671	1
2	15011	14298.760054732332	0
2	15035	14318.51911384682	1
2	15036	14319.547354404203	0
2	15045	14322.331877434104	1
2	15046	14323.278265283103	0
2	15060	14343.493252351421	1
2	15061	14343.909303577	0
2	15070	14345.75477242604	1
2	15071	14347.318475435388	0
2	15090	14368.457148942021	1
2	15091	14368.845723063134	0
2	15095	14369.719382619438	1
2	15096	14370.74823859223	0
2	15100	14370.954600161341	1
2	15101	14372.682025280602	0
2	15140	14448.668144187205	1
2	15141	14449.119127089296	0
2	15145	14451.000201493955	1
2	15146	14451.049961244081	0
2	15150	14451.378263419479	1
2	15151	14452.66730490527	0
2	15155	14453.530499152702	1
2	15156	14454.598245006379	0
2	15170	14461.838661465343	1
2	15171	14461.900348814582	0
2	15175	14462.279534242071	1
2	15176	14463.167369758902	0
2	15187	14466.382936365588	1
2	15188	14467.112664759707	0
2	15215	14483.809105046033	1
2	15216	14484.21441856032	0
2	15230	14487.562937688193	1
2	15232	14488.743748326522	2
2	15233	14488.857732114678	1
2	15237	14489.148428666889	2
2	15238	14490.098119145183	1
2	15241	14491.654861875175	0
2	15245	14492.619987273169	1
2	15246	14493.52247155804	0
2	15265	14511.291900567848	1
2	15266	14511.593605955817	0
2	15270	14513.252244348077	1
2	15271	14513.396503874973	0
2	15275	14514.305208086468	1
2	15276	14515.115085000858	0
2	15290	14532.075146719943	1
2	15291	14532.991319780738	0
2	15300	14536.196232171137	1
2	15301	14536.395612874694	0
2	15305	14537.347482807982	1
2	15306	14537.656032318502	0
2	15330	14569.090426464987	1
2	15331	14569.834494325105	0
2	15345	14599.199238318199	1
2	15346	14599.435538718145	0
2	15350	14600.204529054626	1
2	15352	14600.886664744452	2
2	15353	14601.290623924736	1
2	15356	14603.04917206787	0
2	15390	14635.730201319849	1
2	15391	14636.342970703286	0
2	15410	14703.085511314964	1
2	15411	14703.439256925944	0
2	15425	14709.60391330256	1
2	15426	14709.683130156775	0
2	15475	14770.53672480969	1
2	15476	14770.799268598157	0
2	15495	14796.879188589317	1
2	15496	14797.583228773658	0
2	15510	14804.916728263485	1
2	15512	14805.159174805979	2
2	15513	14806.097554207782	1
2	15516	14808.005413278754	0
2	15545	14841.923498599431	1
2	15546	14843.308675887929	0
2	15580	14896.186739411772	1
2	15581	14896.593256200674	0
2	15585	14896.704315785512	1
2	15586	14898.498936785023	0
2	15590	14898.901683109865	1
2	15591	14900.005854392621	0
2	15595	14900.984298413504	1
2	15596	14901.396597497548	0
2	15635	14927.169020958326	1
2	15636	14928.243015559807	0
2	15645	14932.062016448547	1
2	15646	14932.999602934324	0
2	15665	14951.735567952307	1
2	15666	14952.626210323989	0
2	15705	14980.750537947055	1
2	15706	14981.940872211837	0
2	15720	15001.660351953135	1
2	15721	15002.62448420608	0
2	15740	15017.242446478238	1
2	15741	15017.859792857005	0
2	15745	15017.942659408039	1
2	15746	15019.380171721748	0
2	15750	15019.916482629048	1
2	15751	15020.948495482228	0
2	15765	15030.365469699107	1
2	15766	15030.94027685907	0
2	15770	15031.74748450368	1
2	15773	15032.374557389247	0
2	15777	15032.432480315137	1
2	15779	15033.048309437677	2
2	15780	15034.241507700945	1
2	15783	15035.679403597976	0
2	15795	15039.636383933856	1
2	15796	15041.35776787622	0
2	15877	15103.436927195105	1
2	15878	15104.224047657889	0
2	15882	15105.200554397561	1
2	15883	15106.042595278886	0
2	15887	15106.075712787291	1
2	15888	15107.359672361095	0
2	15892	15108.882985824084	1
2	15893	15108.945090121817	0
2	15900	15112.100231135165	1
2	15901	15112.500509057421	0
2	15905	15113.04551740578	1
2	15906	15114.400105162564	0
2	15915	15118.936977102717	1
2	15916	15119.816339679914	0
2	15920	15120.641944229873	1
2	15921	15121.359083695071	0
2	15935	15137.004972902728	1
2	15937	15137.35128164414	2
2	15938	15137.849804620786	1
2	15942	15138.271622096074	2
2	15943	15139.471026576093	1
2	15947	15139.693313951011	2
2	15948	15141.403857978402	1
2	15952	15142.44551248673	2
2	15953	15143.345247619009	1
2	15956	15144.739896863668	0
2	15990	15207.835827179168	1
2	15991	15208.173506297187	0
2	16050	15277.669477961725	1
2	16051	15277.850448932952	0
2	16060	15288.622313256084	1
2	16061	15289.979424382326	0
2	16080	15315.39225768811	1
2	16081	15316.025951249345	0
2	16085	15316.211121362858	1
2	16087	15317.440679769725	2
2	16088	15317.815031653463	1
2	16094	15318.133906980601	2
2	16097	15319.368924787647	1
2	16100	15320.793685626804	0
2	16104	15321.130148065295	1
2	16105	15322.233170932911	0
2	16120	15331.649127949087	1
2	16121	15332.94197710824	0
2	16130	15335.570724515487	1
2	16131	15336.479413211129	0
2	16195	15412.679832659104	1
2	16196	15413.06837453036	0
2	16220	15463.616712414577	1
2	16221	15464.965068029966	0
2	16225	15465.350142870373	1
2	16227	15465.379983507084	2
2	16229	15466.05296531047	3
2	16230	15466.518806284647	2
2	16233	15468.517650392819	1
2	16237	15469.028528061095	2
2	16239	15469.149614131864	3
2	16241	15469.984734846228	4
2	16242	15470.220552455243	3
2	16245	15471.710043586027	2
2	16248	15473.339048077706	1
2	16251	15475.082205337453	0
2	16260	15477.23558737357	1
2	16261	15478.109344001281	0
2	16425	15768.897718690667	1
2	16426	15769.92554404583	0
2	16450	15799.39055799876	1
2	16453	15800.863187316222	0
2	16457	15801.752430576071	1
2	16458	15802.423289282409	0
2	16485	15838.453783248297	1
2	16486	15840.011714341558	0
2	16535	15890.572131424145	1
2	16536	15891.078343169642	0
2	16590	15937.661414435404	1
2	16591	15938.306597671703	0
2	16620	15953.088683078315	1
2	16621	15953.113442553276	0
2	16640	15978.437314521054	1
2	16641	15979.805640314479	0
2	16655	15993.687008093709	1
2	16656	15994.64969242733	0
2	16675	16001.499489129315	1
2	16676	16001.695368311627	0
2	16680	16002.554616908228	1
2	16681	16003.143431404678	0
2	16710	16016.759734733698	1
2	16711	16016.911030737823	0
2	16780	16081.591982125908	1
2	16781	16082.888750664331	0
2	16800	16093.980767746833	1
2	16801	16094.565083239689	0
2	16832	16114.751034201738	1
2	16833	16115.22104494914	0
2	16840	16117.316807597868	1
2	16841	16118.412213218842	0
2	16845	16119.123488015851	1
2	16846	16119.979877171923	0
2	16855	16129.852528203383	1
2	16856	16130.616694224386	0
2	16860	16130.886546447411	1
2	16861	16132.546154688431	0
2	16880	16174.264211153674	1
2	16881	16174.568665888341	0
2	16895	16180.631150500631	1
2	16896	16181.054658659674	0
2	16930	16220.34457839691	1
2	16931	16220.723445333394	0
2	16955	16232.955308391182	1
2	16956	16234.223665607824	0
2	16960	16234.624804289639	1
2	16961	16235.630186172492	0
2	16990	16256.096052485051	1
2	16991	16256.545846352281	0
2	17007	16275.314874131082	1
2	17008	16276.030177993007	0
2	17040	16327.524961911278	1
2	17041	16328.01471919826	0
2	17070	16354.269725913586	1
2	17071	16355.570705278196	0
2	17110	16412.730292299808	1
2	17111	16414.34905109686	0
2	17115	16416.196012800425	1
2	17116	16416.31767005847	0
2	17120	16416.682617727373	1
2	17121	16417.85770936032	0
2	17180	16497.898919986196	1
2	17181	16498.053801478104	0
2	17190	16502.550886708774	1
2	17192	16502.743489743014	2
2	17193	16503.190933823843	1
2	17196	16504.959788519215	0
2	17205	16521.657487382968	1
2	17206	16521.781453732843	0
2	17215	16525.264498479983	1
2	17216	16526.496160466867	0
2	17220	16527.688510432532	1
2	17221	16527.736071295562	0
2	17225	16528.045959312887	1
2	17226	16529.011907644096	0
2	17255	16556.846602369384	1
2	17256	16557.689353749669	0
2	17275	16568.61570486038	1
2	17276	16569.376172051384	0
2	17340	16670.588073790158	1
2	17341	16671.620730378215	0
2	17355	16677.1931584671	1
2	17356	16677.930938966932	0
2	17360	16678.899349171858	1
2	17361	16679.687128352547	0
2	17385	16691.875520854108	1
2	17386	16692.886076568139	0
2	17395	16694.79729007436	1
2	17397	16696.045354342386	2
2	17398	16696.047356162422	1
2	17402	16697.252567652571	2
2	17403	16697.951405097187	1
2	17407	16697.994149754334	2
2	17408	16699.302424693123	1
2	17412	16699.83787638472	2
2	17413	16701.089635686219	1
2	17417	16701.489381509733	2
2	17419	16701.994166362142	3
2	17420	16702.531848553956	2
2	17423	16704.163648031109	1
2	17428	16705.844641792604	0
2	17435	16708.125208296024	1
2	17436	16709.573889620246	0
2	17480	16757.233341912334	1
2	17481	16758.308776992629	0
2	17495	16774.296026043779	1
2	17496	16774.330818314823	0
2	17520	16796.604870816473	1
2	17521	16797.358889544439	0
2	17585	16843.537085833481	1
2	17586	16843.683301095281	0
2	17627	16878.203281555977	1
2	17628	16878.311051894608	0
2	17642	16883.203178094929	1
2	17643	16883.892542786222	0
2	17660	16898.786354175168	1
2	17661	16899.186294773515	0
2	17665	16899.244488091315	1
2	17667	16900.152578831842	2
2	17668	16900.480072448883	1
2	17671	16902.234372627843	0
2	17690	16919.58235520053	1
2	17691	16921.190305076907	0
2	17700	16923.002046459083	1
2	17701	16924.095104428376	0
2	17705	16924.426094564978	1
2	17706	16925.393334871712	0
2	17715	16929.10800013245	1
2	17718	16929.681238558488	0
2	17725	16932.296162868781	1
2	17726	16933.017483016449	0
2	17760	16969.020024726872	1
2	17761	16969.874011681635	0
2	17790	16992.916638547185	1
2	17791	16994.086782796814	0
2	17822	17021.313688733013	1
2	17823	17021.961378636022	0
2	17827	17022.022755677549	1
2	17829	17022.11647463165	2
2	17830	17023.474992566739	1
2	17834	17024.073795274104	2
2	17835	17025.000963880305	1
2	17838	17026.697539375161	0
2	17850	17031.761525058235	1
2	17851	17032.542110914773	0
2	17915	17168.308528145485	1
2	17916	17168.318392710324	0
2	17990	17307.815107565784	1
2	17991	17308.005288573843	0
2	18000	17309.63555798863	1
2	18002	17310.570003398786	2
2	18003	17310.886394588765	1
2	18008	17312.819925202545	0
2	18025	17322.746245736049	1
2	18027	17322.996560915466	2
2	18028	17323.791995008926	1
2	18031	17325.364471553157	0
2	18035	17325.448327950332	1
2	18036	17327.078879098299	0
2	18040	17328.397312883557	1
2	18041	17329.05432409745	0
2	18045	17329.833356013065	1
2	18046	17330.774503868337	0
2	18110	17433.792876378312	1
2	18111	17435.259377998169	0
2	18155	17501.841038582595	1
2	18158	17502.941295935164	0
2	18162	17504.497120811785	1
2	18163	17504.82491321894	0
2	18205	17543.803124073057	1
2	18206	17545.483653231405	0
2	18215	17547.840335588152	1
2	18216	17548.859969233659	0
2	18225	17551.845960937284	1
2	18226	17552.784515845025	0
2	18235	17563.745878908344	1
2	18236	17564.304097138492	0
2	18255	17575.151123766301	1
2	18256	17575.363000346759	0
2	18285	17597.52245041964	1
2	18286	17598.28569626675	0
2	18295	17603.775671504002	1
2	18296	17604.704497947299	0
2	18340	17640.017827132556	1
2	18341	17640.41064226896	0
2	18350	17665.842167567155	1
2	18351	17666.911359758251	0
2	18360	17668.391311851106	1
2	18361	17669.76012756242	0
2	18382	17706.904554531375	1
2	18383	17707.073375197451	0
2	18397	17710.913712992036	1
2	18398	17712.281263936608	0
2	18430	17759.463023534781	1
2	18431	17759.638533299749	0
2	18465	17803.110414754142	1
2	18466	17803.290219679662	0
2	18470	17803.395645749483	1
2	18471	17804.92747147251	0
2	18475	17805.633479696724	1
2	18476	17806.911897469685	0
2	18500	17845.984152148363	1
2	18502	17846.479932738059	2
2	18503	17846.620394742298	1
2	18506	17848.03015005141	0
2	18510	17848.181795648951	1
2	18511	17849.72637634221	0
2	18550	17879.875927450809	1
2	18551	17880.171216778786	0
2	18565	17886.495896305735	1
2	18566	17886.682698683626	0
2	18610	17921.3333854911	1
2	18611	17922.824767050769	0
2	18625	17935.091628298446	1
2	18626	17936.329232122441	0
2	18645	17950.006178635045	1
2	18646	17951.796458111439	0
2	18670	18003.030975280662	1
2	18671	18004.350232793819	0
2	18695	18026.702469804487	1
2	18696	18027.953843930105	0
2	18700	18029.157449186535	1
2	18701	18029.286076050738	0
2	18705	18030.935174371618	1
2	18706	18031.067091846207	0
2	18710	18031.545788157009	1
2	18711	18032.644226720111	0
2	18720	18035.816698740505	1
2	18724	18037.665868180153	2
2	18725	18037.769912352679	1
2	18728	18039.760149297943	0
2	18740	18045.721575942665	1
2	18741	18046.474530064293	0
2	18770	18086.064995809243	1
2	18772	18086.114711782604	2
2	18773	18086.946022743326	1
2	18776	18088.883066078428	0
2	18780	18089.334184589737	1
2	18781	18090.25796730962	0
2	18800	18107.284918518186	1
2	18802	18107.509669070385	2
2	18803	18108.636682697764	1
2	18807	18108.885982174842	2
2	18808	18110.294332967332	1
2	18811	18111.734393092251	0
2	18820	18146.327578996799	1
2	18821	18147.245708706208	0
2	18825	18147.854240662474	1
2	18826	18149.218372539036	0
2	18855	18165.976479325491	1
2	18857	18167.395061512303	2
2	18858	18167.532014485148	1
2	18862	18168.953308253992	2
2	18864	18169.043146844623	3
2	18865	18169.462592220751	2
2	18868	18170.724399981906	1
2	18871	18171.995811246408	0
2	18880	18176.780233043515	1
2	18881	18178.294346639098	0
2	18922	18209.237052101466	1
2	18923	18209.242298216505	0
2	18930	18210.995358904999	1
2	18932	18211.629907761478	2
2	18933	18212.629044535889	1
2	18936	18214.526213485322	0
2	18945	18219.567536111268	1
2	18946	18219.596774477143	0
2	18970	18251.528288317019	1
2	18972	18252.66050198281	2
2	18973	18253.216350602567	1
2	18976	18254.586158508271	0
2	18985	18258.454848302787	1
2	18986	18258.871117131114	0
2	19030	18308.604927018244	1
2	19031	18309.48086865715	0
2	19040	18313.929824282125	1
2	19041	18314.350422994614	0
2	19045	18315.847834996653	1
2	19046	18316.066534172565	0
2	19060	18327.590070276664	1
2	19062	18328.03820411539	2
2	19063	18329.031605730149	1
2	19066	18330.401670598554	0
2	19075	18335.442165283524	1
2	19077	18335.750005249317	2
2	19078	18336.482740146428	1
2	19081	18338.295092558063	0
2	19090	18341.132603600886	1
2	19091	18342.307171348097	0
2	19115	18370.963863187273	1
2	19116	18372.405823558749	0
2	19125	18374.109042260268	1
2	19126	18375.539371068583	0
2	19137	18385.7013400362	1
2	19141	18386.439154146139	2
2	19142	18386.800916456759	1
2	19145	18388.398154936872	0
2	19200	18450.431097184466	1
2	19202	18451.003314132015	2
2	19203	18451.164189983389	1
2	19206	18452.540463711179	0
2	19250	18495.242880568583	1
2	19251	18495.377148508407	0
2	19270	18532.93767753865	1
2	19271	18534.195367383637	0
2	19285	18545.508807131	1
2	19287	18545.785697351027	2
2	19288	18545.85471117774	1
2	19291	18547.278381891157	0
2	19300	18554.229991796839	1
2	19301	18554.344427842821	0
2	19310	18556.979046911567	1
2	19311	18557.716635091218	0
2	19315	18558.05902391438	1
2	19316	18559.306818890932	0
2	19375	18627.057407366654	1
2	19376	18627.624783476094	0
2	19380	18628.633140472263	1
2	19381	18628.830320773857	0
2	19390	18633.360088871215	1
2	19391	18634.099745672165	0
2	19445	18734.126783994071	1
2	19446	18735.225363114211	0
2	19450	18735.704599808965	1
2	19451	18736.731284364606	0
2	19470	18745.901207883022	1
2	19471	18747.196036221501	0
2	19475	18747.708497816143	1
2	19477	18748.556180563255	2
2	19478	18748.640897502978	1
2	19481	18750.446194437001	0
2	19505	18773.6542156766	1
2	19506	18773.706042932963	0
2	19520	18780.908589567168	1
2	19521	18781.752803184541	0
2	19625	18881.03636258711	1
2	19626	18881.142106994272	0
2	19630	18881.31218738114	1
2	19632	18882.811136494666	2
2	19633	18883.102361846373	1
2	19636	18884.765367936187	0
2	19640	18885.549558539939	1
2	19641	18885.99500900063	0
2	19655	18889.862916599084	1
2	19656	18890.826399484487	0
2	19685	18935.598181622966	1
2	19686	18936.625498349342	0
2	19745	19011.750172743179	1
2	19746	19012.822893241426	0
2	19800	19110.467635574318	1
2	19801	19110.949672516001	0
2	19815	19126.631968426019	1
2	19816	19127.443544589444	0
2	19820	19127.490463228118	1
2	19822	19128.722161547072	2
2	19823	19129.23433817876	1
2	19829	19130.596673555219	2
2	19830	19131.178585308878	1
2	19834	19131.837765920534	2
2	19835	19133.149915195903	1
2	19838	19135.112110287784	0
2	19860	19154.312235850185	1
2	19861	19154.648429652885	0
2	19895	19189.087250249231	1
2	19896	19190.39070367792	0
2	19905	19192.751937775659	1
2	19906	19193.469550422225	0
2	19940	19224.384163568076	1
2	19941	19225.134200915028	0
2	19950	19253.224730117434	1
2	19951	19254.071508623192	0
2	19955	19254.720575562717	1
2	19956	19255.998580696152	0
2	19960	19256.397144162257	1
2	19961	19257.981350929753	0
2	19965	19258.718158945626	1
2	19966	19259.505032744535	0
2	19975	19306.431644910039	1
2	19976	19306.958016088934	0
2	19985	19309.394497350746	1
2	19986	19310.67614123923	0
2	19990	19312.113829929713	1
2	19991	19312.455493209411	0
2	20000	19317.309941047425	1
2	20002	19317.498408086883	2
2	20003	19318.385146560965	1
2	20006	19320.032121817654	0
2	20025	19336.60136301228	1
2	20026	19337.481747244506	0
2	20035	19351.833232084387	1
2	20036	19351.971981852971	0
2	20040	19352.759982128582	1
2	20041	19353.613371328175	0
2	20065	19384.929924388829	1
2	20068	19385.788358109484	0
2	20072	19386.008547540037	1
2	20073	19387.249080043698	0
2	20082	19389.247545309914	1
2	20083	19390.729530058654	0
2	20115	19407.91718376285	1
2	20116	19408.078383836349	0
2	20155	19487.593207462638	1
2	20156	19487.858406231496	0
2	20165	19503.78671285272	1
2	20166	19503.996836056532	0
2	20170	19504.807271356223	1
2	20171	19505.825987996878	0
2	20200	19563.367207048085	1
2	20202	19563.814501865894	2
2	20203	19565.062197794343	1
2	20207	19566.073697322175	2
2	20208	19566.518984712424	1
2	20211	19568.385499590772	0
2	20225	19572.632185991073	1
2	20226	19574.233245306331	0
2	20310	19663.716255082436	1
2	20311	19664.390151058329	0
2	20367	19734.068295660031	1
2	20368	19735.497872498128	0
2	20372	19736.330870971685	1
2	20373	19736.867439761441	0
2	20385	19743.912617978158	1
2	20386	19744.16535006084	0
2	20390	19744.988323196902	1
2	20391	19745.377729782765	0
2	20395	19746.571994474126	1
2	20396	19747.295515273814	0
2	20455	19817.24760730809	1
2	20456	19817.419559502978	0
2	20472	19823.18191226337	1
2	20474	19823.776754471926	2
2	20475	19824.761819212067	1
2	20479	19825.221211959609	2
2	20480	19826.244781758378	1
2	20484	19826.834664077649	2
2	20485	19827.719312216642	1
2	20488	19829.213576278205	0
2	20500	19832.282954646284	1
2	20501	19833.822027047326	0
2	20505	19835.213524698796	1
2	20506	19835.788757317488	0
2	20525	19853.475467302242	1
2	20526	19854.835314208698	0
2	20535	19859.119752453362	1
2	20536	19859.333543062323	0
2	20550	19865.268312973583	1
2	20551	19865.351285556086	0
2	20575	19887.038999561534	1
2	20576	19888.207224540578	0
2	20625	19924.508590157176	1
2	20627	19925.238598932824	2
2	20628	19925.724271190938	1
2	20631	19927.081908306878	0
2	20635	19927.098772495236	1
2	20636	19928.693001073439	0
2	20640	19930.025928071838	1
2	20641	19930.39449088632	0
2	20665	19941.603611147243	1
2	20666	19942.4178790231	0
2	20675	19945.643114957045	1
2	20676	19945.911869226895	0
2	20685	19948.457033868074	1
2	20688	19950.264895787925	0
2	20720	19968.04303876993	1
2	20721	19969.20464455433	0
2	20725	19969.586244727724	1
2	20726	19970.449813041685	0
2	20732	19970.771979136791	1
2	20734	19970.975020931689	2
2	20735	19971.741019285692	1
2	20739	19972.174970505322	2
2	20740	19973.654528757034	1
2	20743	19975.513462054392	0
2	20765	19990.736779329104	1
2	20766	19990.791049851258	0
2	20770	19991.736480179281	1
2	20771	19992.775193895367	0
2	20795	20010.719309759835	1
2	20796	20012.322862916253	0
2	20830	20051.995725369792	1
2	20831	20052.165104846572	0
2	20835	20052.201205500875	1
2	20836	20053.71867127764	0
2	20845	20057.131854565556	1
2	20846	20058.099708293783	0
2	20850	20058.40976785826	1
2	20851	20059.910003742608	0
2	20865	20078.346226788195	1
2	20866	20079.065459182655	0
2	20885	20091.905713272437	1
2	20886	20092.651362550486	0
2	20922	20132.004472620787	1
2	20923	20133.417501439956	0
2	20977	20191.861161626763	1
2	20978	20192.408929476759	0
2	20985	20193.968850527041	1
2	20986	20195.371141821577	0
2	21075	20264.277353494917	1
2	21076	20265.431100221049	0
2	21105	20298.335801827358	1
2	21106	20298.88047994325	0
2	21110	20298.9150396698	1
2	21111	20300.247317025681	0
2	21145	20352.72980252474	1
2	21146	20353.627233170522	0
2	21205	20448.734864770483	1
2	21206	20450.025875943848	0
2	21225	20460.489975808849	1
2	21226	20460.492404980803	0
2	21230	20461.631530914044	1
2	21231	20462.070109556088	0
2	21240	20464.578490009437	1
2	21241	20465.409102525593	0
2	21250	20468.258983551391	1
2	21252	20468.629595595161	2
2	21253	20469.057490578958	1
2	21257	20469.348498027436	2
2	21262	20470.772359679186	1
2	21265	20472.252306230099	0
2	21269	20472.588275021165	1
2	21271	20473.737198702822	2
2	21272	20473.88884456727	1
2	21275	20475.166384501302	0
2	21345	20570.232813425869	1
2	21346	20570.699524797373	0
2	21370	20616.422216514113	1
2	21371	20616.614164395234	0
2	21380	20622.265241823139	1
2	21381	20623.295666732263	0
2	21390	20630.082209052216	1
2	21391	20630.641227401472	0
2	21395	20630.741163842107	1
2	21396	20632.624273740365	0
2	21410	20644.060018187257	1
2	21413	20645.75910184029	0
2	21430	20652.879298905608	1
2	21431	20653.3620365758	0
2	21435	20653.973440145642	1
2	21438	20655.289680352671	0
2	21460	20681.259359373686	1
2	21461	20682.841014541631	0
2	21475	20711.57157886826	1
2	21476	20711.799907081206	0
2	21480	20712.53024700051	1
2	21481	20713.72962137666	0
2	21490	20722.584129482608	1
2	21492	20723.043252651247	2
2	21493	20723.545968537328	1
2	21496	20725.06997467011	0
2	21520	20743.364768575632	1
2	21522	20743.997968733179	2
2	21523	20744.111187502011	1
2	21527	20745.211602201074	2
2	21528	20745.474240775607	1
2	21532	20745.506958815905	2
2	21533	20747.409081733055	1
2	21536	20749.120065681465	0
2	21640	20848.548876326002	1
2	21642	20848.593456757431	2
2	21643	20849.900890972679	1
2	21647	20850.080699395434	2
2	21650	20851.610878950944	1
2	21653	20852.832310415646	0
2	21675	20864.41994385602	1
2	21676	20864.484756937339	0
2	21695	20878.746232794615	1
2	21696	20878.938296132846	0
2	21710	20886.353206646784	1
2	21711	20886.764679409799	0
2	21715	20886.962374690896	1
2	21716	20888.265196484749	0
2	21720	20888.990876090435	1
2	21722	20889.865232843105	2
2	21723	20890.191989075814	1
2	21727	20890.85577996121	2
2	21729	20891.343543863174	3
2	21730	20892.041402794656	2
2	21733	20893.304893625204	1
2	21736	20894.793691622328	0
2	21747	20907.192583208482	1
2	21748	20907.366578068384	0
2	21807	20981.969063406347	1
2	21808	20982.280574585681	0
2	21825	20999.549625222599	1
2	21826	20999.802833136889	0
2	21850	21014.204962778252	1
2	21851	21014.443532530188	0
2	21870	21028.768316824783	1
2	21871	21029.134323554148	0
2	21880	21031.78857932837	1
2	21881	21032.171431014697	0
2	21890	21033.995160372621	1
2	21891	21035.455922092321	0
2	21900	21049.882083859156	1
2	21901	21050.404621186039	0
2	21905	21050.474826792046	1
2	21906	21051.742324576272	0
2	21945	21117.488974736076	1
2	21947	21117.565495077312	2
2	21948	21118.190798317211	1
2	21951	21119.620933571773	0
2	21970	21131.406521376506	1
2	21971	21131.966821486619	0
2	21980	21135.856537097227	1
2	21981	21136.096018985397	0
2	22010	21190.789306061534	1
2	22011	21191.810055820244	0
2	22050	21248.568972391026	1
2	22051	21249.186286571404	0
2	22080	21291.95473696005	1
2	22083	21292.722276773195	0
2	22092	21295.846595700401	1
2	22093	21295.854199648912	0
2	22097	21297.058331608184	1
2	22099	21297.18332971836	2
2	22100	21297.310594463426	1
2	22103	21298.989332828003	0
2	22140	21323.222111343805	1
2	22141	21324.42723157812	0
2	22145	21325.396199940384	1
2	22146	21326.41419546228	0
2	22215	21382.256764664606	1
2	22216	21383.260427081947	0
2	22220	21384.144093309882	1
2	22221	21384.78771768472	0
2	22285	21484.831634407751	1
2	22286	21485.90057845567	0
2	22385	21598.081152556524	1
2	22386	21599.507305966408	0
2	22400	21609.495360762488	1
2	22401	21611.013462617689	0
2	22425	21622.775291467074	1
2	22426	21624.279130360804	0
2	22450	21645.834281228308	1
2	22451	21646.548980447375	0
2	22455	21647.085431525202	1
2	22457	21647.272936175323	2
2	22458	21648.120480826408	1
2	22461	21650.078276589983	0
2	22495	21674.475160225742	1
2	22496	21676.081419517888	0
2	22507	21678.98337646421	1
2	22508	21679.600296175337	0
2	22512	21681.343014387544	1
2	22513	21681.458532564013	0
2	22545	21699.959147321574	1
2	22546	21700.376444697326	0
2	22560	21709.226864332072	1
2	22561	21710.437334854469	0
2	22580	21727.596343296979	1
2	22581	21728.283488233119	0
2	22590	21751.549044178926	1
2	22592	21751.907077344447	2
2	22594	21752.012057543112	3
2	22595	21752.193721759429	2
2	22598	21753.778218726178	1
2	22601	21755.711450057772	0
2	22685	21865.742655035539	1
2	22686	21866.984076441834	0
2	22735	21926.691548519161	1
2	22736	21927.390542031703	0
2	22760	21951.660834629478	1
2	22761	21952.488154966165	0
2	22765	21954.125823558455	1
2	22766	21954.256586514567	0
2	22805	21994.044479478389	1
2	22806	21995.807245865276	0
2	22810	21996.318770636719	1
2	22811	21997.167769830299	0
2	22830	22006.34725228675	1
2	22831	22006.672050744209	0
2	22840	22017.715576417918	1
2	22841	22018.287153732925	0
2	22845	22018.531477034959	1
2	22847	22019.640384232798	2
2	22848	22019.763055681213	1
2	22852	22020.616727316858	2
2	22854	22021.321163765446	3
2	22855	22021.438749391361	2
2	22858	22022.888166110552	1
2	22861	22024.853683789595	0
2	22872	22028.574777644271	1
2	22873	22028.814106572019	0
2	22882	22031.175327254132	1
2	22883	22031.558670415142	0
2	23000	22178.270531432077	1
2	23001	22178.522605153034	0
2	23015	22191.81528689305	1
2	23017	22192.101809454089	2
2	23018	22192.482530964156	1
2	23022	22193.269273828034	2
2	23024	22194.168748740785	3
2	23025	22194.265294307274	2
2	23029	22195.067282289457	3
2	23030	22196.105517292758	2
2	23033	22197.981566689712	1
2	23036	22199.970612758388	0
2	23040	22200.026625603895	1
2	23041	22201.691812879768	0
2	23080	22231.695449347577	1
2	23081	22232.262313470774	0
2	23100	22246.341766635729	1
2	23101	22247.223342758906	0
2	23110	22248.98441909801	1
2	23111	22250.725520953014	0
2	23115	22251.78675821137	1
2	23116	22252.132129546478	0
2	23130	22255.068915102971	1
2	23132	22255.887739740522	2
2	23133	22256.593502052352	1
2	23136	22258.139296531342	0
2	23140	22258.229568564065	1
2	23142	22259.167921927876	2
2	23143	22260.074428236336	1
2	23146	22261.995597639718	0
2	23230	22353.490068527324	1
2	23231	22354.155054739028	0
2	23250	22384.321657092202	1
2	23251	22385.21595768731	0
2	23265	22390.348727282799	1
2	23266	22390.837661667421	0
2	23295	22422.510127667392	1
2	23296	22422.55057389347	0
2	23317	22440.68116316543	1
2	23318	22440.847823363142	0
2	23322	22441.140915793641	1
2	23323	22442.822405328387	0
2	23340	22458.106381137885	1
2	23341	22459.125838991345	0
2	23345	22460.058916875271	1
2	23346	22460.74566954849	0
2	23350	22460.819555401257	1
2	23352	22460.9708891906	2
2	23353	22462.268118510486	1
2	23356	22463.985577497349	0
2	23365	22470.935871746985	1
2	23367	22471.991903679561	2
2	23368	22472.208743440093	1
2	23371	22473.518528191106	0
2	23410	22511.602224618779	1
2	23412	22511.603569652876	2
2	23413	22512.857366524912	1
2	23418	22514.743261281304	0
2	23430	22521.09889167974	1
2	23431	22521.377406056822	0
2	23435	22521.643175211929	1
2	23437	22521.998075345849	2
2	23438	22523.033114124127	1
2	23442	22524.377254088985	2
2	23443	22524.658254354671	1
2	23447	22524.890741378982	2
2	23448	22526.258799169995	1
2	23452	22527.273457628424	2
2	23453	22527.616497506984	1
2	23456	22529.552928930186	0
2	23500	22607.245056659847	1
2	23501	22607.477557329463	0
2	23570	22670.658387952382	1
2	23571	22671.059955324283	0
2	23590	22683.29664101826	1
2	23591	22683.358260859695	0
2	23595	22683.742291475044	1
2	23597	22685.134417636446	2
2	23598	22685.160058505607	1
2	23602	22685.776741809413	2
2	23603	22686.727939891403	1
2	23606	22688.391876054143	0
2	23615	22694.616423646728	1
2	23616	22695.88778312398	0
2	23620	22696.701616065232	1
2	23621	22697.80614568075	0
2	23665	22730.14486658073	1
2	23667	22730.264500135329	2
2	23668	22731.823730678636	1
2	23672	22732.688378873118	2
2	23673	22733.229051417451	1
2	23676	22734.734435185011	0
2	23680	22734.759861874514	1
2	23681	22736.197468877177	0
2	23705	22768.591472224451	1
2	23706	22768.895352186625	0
2	23735	22792.932495622691	1
2	23736	22794.022385243339	0
2	23745	22805.836209267668	1
2	23746	22806.990671144975	0
2	23750	22807.242313463716	1
2	23753	22808.7764332991	0
2	23760	22811.082838960912	1
2	23762	22811.591215238863	2
2	23763	22811.99379760622	1
2	23766	22813.25979405119	0
2	23800	22844.888130967997	1
2	23801	22844.976865721993	0
2	23830	22882.989447780277	1
2	23831	22883.453522285004	0
2	23860	22911.745230339114	1
2	23861	22912.909168305105	0
2	23885	22932.721074880279	1
2	23886	22934.344973255535	0
2	23905	22947.653014528898	1
2	23907	22948.18547199295	2
2	23908	22948.826105757131	1
2	23911	22950.72250833854	0
2	23930	22977.248418385454	1
2	23931	22978.695161148398	0
2	23935	22978.791762551295	1
2	23939	22979.723605522041	2
2	23940	22979.908292183331	1
2	23943	22981.773474671556	0
2	23955	23005.188611628398	1
2	23956	23005.194459030211	0
2	23965	23019.389165374784	1
2	23966	23020.094226044148	0
2	23990	23040.477702131503	1
2	23991	23040.895244644784	0
2	24140	23237.342392449782	1
2	24141	23238.132929320383	0
2	24145	23238.651332833317	1
2	24146	23240.090015708405	0
2	24155	23242.240778530503	1
2	24157	23242.483564356363	2
2	24158	23242.810873605806	1
2	24163	23244.231605926465	0
2	24170	23246.822981059223	1
2	24171	23247.449541524361	0
2	24175	23247.584161605849	1
2	24178	23248.705369454372	0
2	24185	23250.602960900354	1
2	24187	23250.786350193983	2
2	24188	23251.943551203731	1
2	24192	23252.151745838605	2
2	24193	23253.759184835601	1
2	24196	23255.475478954363	0
2	24245	23318.902578548785	1
2	24246	23319.864208994817	0
2	24265	23334.99347028378	1
2	24266	23335.243528574836	0
2	24300	23357.689265141555	1
2	24301	23358.805102919907	0
2	24310	23362.127796047704	1
2	24312	23362.137166109692	2
2	24314	23362.202696925647	3
2	24315	23363.577189068644	2
2	24318	23365.422047231122	1
2	24321	23367.018439635596	0
2	24340	23375.87191221489	1
2	24341	23377.2701026631	0
2	24355	23391.329349148597	1
2	24356	23391.715052188417	0
2	24375	23424.685923446182	1
2	24377	23424.802269969372	2
2	24378	23425.706461434157	1
2	24382	23426.084781239147	2
2	24383	23427.044910778382	1
2	24386	23429.015863084325	0
2	24415	23453.773838977996	1
2	24416	23453.905245201198	0
2	24435	23470.759892432021	1
2	24436	23471.989503894764	0
2	24440	23472.70998252722	1
2	24442	23473.040938917896	2
2	24443	23473.61687815098	1
2	24446	23475.545402584615	0
2	24465	23486.750551441054	1
2	24466	23488.555827362853	0
2	24470	23489.040119725805	1
2	24471	23489.859901496041	0
2	24490	23524.172042889631	1
2	24491	23525.013483466765	0
2	24570	23611.320672353875	1
2	24571	23611.476710740464	0
2	24600	23662.210451674139	1
2	24601	23662.32275140259	0
2	24650	23706.244549519999	1
2	24651	23707.164407635274	0
2	24655	23708.037862813655	1
2	24656	23708.99601804668	0
2	24682	23744.118444761133	1
2	24683	23745.237346080121	0
2	24687	23746.059005623055	1
2	24688	23746.690467411455	0
2	24695	23748.374473199984	1
2	24697	23748.409106613066	2
2	24698	23749.639137887944	1
2	24701	23751.388665323508	0
2	24705	23752.840161593279	1
2	24706	23752.904062742171	0
2	24735	23779.720295043837	1
2	24736	23780.381983560479	0
2	24750	23786.481600031449	1
2	24751	23787.95973424321	0
2	24765	23798.824939379957	1
2	24766	23798.892461729858	0
2	24805	23826.128761584018	1
2	24806	23826.995600278703	0
2	24812	23828.886574547159	1
2	24813	23828.95784636571	0
2	24830	23833.257257665528	1
2	24831	23834.864140869869	0
2	24840	23845.279961383098	1
2	24841	23846.932910980223	0
2	24850	23860.354140648071	1
2	24852	23861.423499647541	2
2	24853	23861.755807263402	1
2	24857	23861.772955082811	2
2	24858	23863.665200472062	1
2	24863	23865.073645708708	0
2	24880	23871.264546814464	1
2	24881	23871.855533097874	0
2	24885	23873.144230373288	1
2	24886	23873.65671976209	0
2	24895	23878.591118057985	1
2	24896	23879.758657657283	0
2	24900	23880.812519705221	1
2	24901	23881.215857098925	0
2	24905	23882.608748374372	1
2	24906	23882.885792257006	0
2	24920	23904.376199376255	1
2	24922	23905.788736720442	2
2	24923	23906.310456574924	1
2	24927	23906.879485109528	2
2	24928	23907.734132417321	1
2	24932	23907.919109053488	2
2	24933	23909.121148097731	1
2	24936	23910.987405782968	0
2	24950	23917.376633104545	1
2	24951	23917.460896475497	0
2	24975	23930.232602421321	1
2	24976	23931.87561066641	0
2	25010	23976.682490252453	1
2	25011	23976.896799312836	0
2	25015	23976.995837001933	1
2	25017	23977.457869092097	2
2	25018	23978.62886841905	1
2	25022	23978.633352210587	2
2	25023	23980.495053183778	1
2	25026	23981.903181792355	0
2	25030	23982.285906148047	1
2	25031	23983.525485427796	0
2	25050	24001.439956298425	1
2	25051	24002.172130572264	0
2	25055	24003.341593296787	1
2	25056	24003.855430352715	0
2	25070	24014.40547373009	1
2	25072	24015.94036702189	2
2	25073	24016.082530688583	1
2	25077	24017.250727799787	2
[...]
6	17015	16279.294342833623	4.18760485034
6	17030	16302.997204448636	1.585411090218
6	17055	16337.505230289691	1.457879935764
6	17085	16371.196052425806	1.524861919694
6	17135	16423.584618970394	4.137800227193
6	17155	16444.247014386133	1.27916229628
6	17194	16503.190933823843	1.920022805966
6	17265	16562.537784693392	1.360977571085
6	17295	16600.09777091286	2.775548572418
6	17380	16687.507237022061	1.404111359827
6	17437	16709.573889620246	4.379734599971
6	17472	16752.184444929834	2.460428508554
6	17475	16753.504495516035	4.774479976482
6	17482	16758.308776992629	1.815547932126
6	17540	16808.58617779641	1.972687201388
6	17545	16814.526800552438	1.919989617728
6	17587	16843.683301095281	6.673941476275
6	17605	16855.647387920578	2.768518418232
6	17637	16881.917942247238	11.236247211335
6	17644	16883.892542786222	7.048016758823
6	17650	16887.009111969057	4.628144051472
6	17680	16905.328238651078	1.671723023939
6	17692	16921.190305076907	4.958389276941
6	17702	16924.095104428376	2.167380937628
6	17727	16933.017483016449	3.691046720995
6	17755	16966.155919750975	8.552769858583
6	17775	16975.413840286245	3.60369718204
6	17780	16978.299402470212	1.773098744825
6	17800	17002.641049123439	1.684118143842
6	17852	17032.542110914773	12.314945321754
6	17860	17048.764934403621	1.784162306786
6	17865	17058.062495257628	1.585294646956
6	17870	17065.061067315093	1.492769561894
6	17875	17068.970057634577	1.295609390736
6	17945	17211.225810422587	1.975361518934
6	17955	17229.833385417239	1.832741573215
6	17970	17268.163526885296	1.689854062162
6	18004	17310.886394588765	1.529915745521
6	18015	17316.395371728879	5.374839694553
6	18082	17380.715390853473	1.408655744046
6	18090	17384.733820508608	5.167936915099
6	18170	17507.591553714449	4.733023517477
6	18185	17521.492252084641	2.998648845634
6	18200	17538.55606748336	1.253488320635
6	18250	17569.316070356095	1.626212075205
6	18342	17640.41064226896	1.227259335294
6	18362	17669.76012756242	2.468081171751
6	18405	17715.998967681377	9.222020368387
6	18410	17738.175359111331	1.669753354602
6	18415	17740.733828736596	1.257890993729
6	18552	17880.171216778786	1.982320685871
6	18605	17920.686637268378	2.989216031595
6	18627	17936.329232122441	2.31613568787
6	18647	17951.796458111439	11.339030171204
6	18680	18008.969996397331	1.712466882169
6	18735	18042.953004929317	6.372860342619
6	18742	18046.474530064293	1.449586533196
6	18760	18056.117357744707	7.320830542165
6	18795	18100.519343046527	3.164193169831
6	18840	18157.377751853458	1.491022725031
6	18890	18181.117722151012	4.64826721102
6	18895	18184.981057105961	1.994821347483
6	18900	18193.751878112446	1.367215834931
6	18924	18209.242298216505	2.833694112447
6	18934	18212.629044535889	13.41336800924
6	18947	18219.596774477143	1.694986139052
6	18955	18222.574817510699	2.918290767431
6	19020	18293.366215030758	1.568964769132
6	19025	18302.577507417689	1.562045100704
6	19032	18309.48086865715	1.69446599707
6	19042	18314.350422994614	1.738938888349
6	19055	18323.079463626399	1.363549168035
6	19127	18375.539371068583	2.645690878911
6	19152	18391.256129636198	5.980968641624
6	19165	18396.833261848718	11.029030255867
6	19190	18438.579969476396	1.445362359472
6	19215	18455.573409561298	2.587268308034
6	19225	18464.337119609527	1.83702182956
6	19230	18472.702683476938	1.753061168268
6	19312	18557.716635091218	2.120301141203
6	19400	18645.701067100506	1.21034458559
6	19415	18661.219781957401	1.388958485052
6	19462	18740.98946188079	1.983174577914
6	19465	18742.625939263457	2.122876140815
6	19535	18792.943482157669	1.853603151813
6	19565	18819.96905629788	1.716336472705
6	19580	18838.439048459737	1.53580114767
6	19605	18858.210212336994	1.324935279973
6	19665	18904.805403867722	1.614507986233
6	19675	18929.211886710443	1.798184104823
6	19725	18968.09541869373	6.926401840246
6	19755	19016.103764555796	2.043335985482
6	19850	19141.298834111142	11.325025964853
6	19862	19154.648429652885	1.961865026504
6	19885	19171.562065839235	1.945759987272
6	19935	19223.895764041543	1.390586503409
6	20004	19318.385146560965	1.463387461938
6	20099	19395.549672588372	9.876584004694
6	20104	19396.92457975451	3.239470260127
6	20107	19398.634835803733	14.537766280396
6	20117	19408.078383836349	1.883563630842
6	20125	19411.340098155489	14.546329012165
6	20167	19503.996836056532	1.849321383983
6	20204	19565.062197794343	1.699989078939
6	20260	19618.749928246156	5.362713614136
6	20265	19624.350715745505	1.984286889248
6	20295	19651.016094632659	1.257255507447
6	20305	19662.414191580783	1.506031499617
6	20320	19679.539369226174	1.836858586781
6	20350	19714.870155117016	1.508071579598
6	20380	19740.630487050358	6.632172376471
6	20445	19810.93205337435	1.479517182708
6	20502	19833.822027047326	13.7238338857
6	20605	19900.937716549768	6.203524419332
6	20615	19921.49243513545	1.787509655207
6	20695	19953.492584039547	9.227806563266
6	20700	19955.370805779761	1.658921585791
6	20710	19963.91890639374	1.785918121971
6	20750	19978.236989625951	7.632468729704
6	20767	19990.791049851258	1.472447752766
6	20785	20005.602325940746	1.924618353293
6	20847	20058.099708293783	1.465070089884
6	20860	20077.270546956146	1.451048863493
6	20915	20124.268359285227	2.849524458451
6	20930	20136.802111765986	4.914571820343
6	20945	20153.099868732876	10.72056237116
6	21012	20206.846629850973	2.302040824329
6	21015	20208.729840767604	3.745355348032
6	21020	20214.179664314062	22.564614079604
6	21062	20254.514743264701	2.216724456928
6	21065	20256.41273794261	13.088606949927
6	21095	20289.018095136148	3.054823397865
6	21200	20447.773286470448	3.022341575725
6	21220	20457.459321921294	1.799470547028
6	21282	20478.48385104976	9.122073082318
6	21285	20480.308259602369	16.959461263235
6	21347	20570.699524797373	1.990354754962
6	21420	20648.58927353471	4.343380685005
6	21445	20658.252354778772	3.400804665799
6	21457	20681.212030926851	1.805236381665
6	21462	20682.841014541631	6.814644072894
6	21477	20711.799907081206	1.681875818409
6	21515	20738.151006510768	1.429768314399
6	21585	20806.498407451736	1.395488841459
6	21605	20831.222784074307	2.993230802518
6	21610	20835.263278166322	1.701666229032
6	21630	20845.297098982566	8.328420311496
6	21664	20856.595670863083	8.599192753249
6	21667	20858.139645131147	4.817245523349
6	21670	20859.449237206979	4.693387610137
6	21697	20878.938296132846	1.267939608172
6	21749	20907.366578068384	1.665704203211
6	21755	20910.591569147991	4.73888024313
6	21760	20930.491757680761	1.389416184463
6	21815	20985.644803093744	5.063431405227
6	21840	21006.130909052255	1.216206369922
6	21845	21008.13679367323	1.755834426172
6	21892	21035.455922092321	2.106619042542
6	21915	21068.001784976071	1.386176454276
6	21925	21081.738277157987	1.881772453524
6	21960	21125.764467826153	1.712509340607
6	22094	21295.854199648912	3.518585807861
6	22110	21301.910938600342	7.563248683149
6	22127	21309.57526658031	2.797300242915
6	22130	21311.088779397149	1.930534641549
6	22142	21324.42723157812	1.88504635673
6	22217	21383.260427081947	1.260780374147
6	22240	21403.190957177417	1.794846780226
6	22255	21424.043030795521	1.997670709901
6	22260	21427.513916750763	1.272662658989
6	22275	21469.489171718234	1.358833271265
6	22287	21485.90057845567	1.655177284405
6	22295	21488.599984886134	7.480906060666
6	22305	21494.701594479582	1.764636774415
6	22315	21501.489744787206	1.577067876235
6	22370	21571.018064078941	3.478654841414
6	22402	21611.013462617689	1.726145513169
6	22442	21632.381032156487	1.790115731582
6	22445	21633.792170501974	3.022424234528
6	22472	21653.455629240447	2.587861735908
6	22475	21655.035377404378	2.005802075561
6	22509	21679.600296175337	2.391055241014
6	22522	21684.791725323393	10.405119337328
6	22525	21686.462817014425	2.47930026458
6	22562	21710.437334854469	1.568861604109
6	22570	21724.230128903354	1.433743406273
6	22582	21728.283488233119	3.039130578206
6	22596	21752.193721759429	1.512888543122
6	22665	21855.770754157008	1.521791659668
6	22715	21892.170157815933	3.717541649854
6	22730	21923.425234217945	2.885095499833
6	22745	21931.305756316958	5.380938841217
6	22775	21960.841902080362	1.269206297398
6	22785	21970.704906584249	2.318299906222
6	22820	22000.553685565034	1.662254540622
6	22884	22031.558670415142	4.089294887296
6	22890	22035.024710004004	4.917531352147
6	22920	22063.565451152092	2.142093111098
6	22940	22088.680829379169	1.338449229486
6	22960	22119.055160873671	1.722285979427
6	22980	22153.820473084349	1.855534243584
6	23002	22178.522605153034	1.857356990501
6	23010	22186.190329204345	1.560462244786
6	23055	22207.086275151521	3.893290418264
6	23060	22210.011642021729	1.341730822809
6	23090	22236.071304246568	6.252940498984
6	23112	22250.725520953014	1.949580516852
6	23127	22254.74802793324	2.263836070425
6	23134	22256.593502052352	3.53406206689
6	23190	22304.910302656682	2.883780220879
6	23200	22314.972009676064	3.483751679261
6	23232	22354.155054739028	1.261705059372
6	23267	22390.837661667421	7.356880134896
6	23275	22399.445746685912	1.679119293019
6	23297	22422.55057389347	1.803460858203
6	23330	22445.82087511734	10.132273940062
6	23425	22518.031767166495	3.831543490535
6	23520	22629.467720057536	4.071402605654
6	23537	22638.075816901872	1.356020326726
6	23545	22641.264292317591	3.445910587055
6	23640	22706.73469916353	2.994121425961
6	23730	22783.305110299967	2.771179227956
6	23764	22811.99379760622	4.184033824375
6	23785	22832.870672824163	1.251696225256
6	23795	22841.84482634346	1.762009304948
6	23840	22887.45451192856	1.671100942045
6	23847	22903.713026561217	1.532159221545
6	23850	22905.649528862351	2.19502827301
6	23855	22910.474192244173	1.204331639409
6	23870	22917.202471076831	5.559266335608
6	23880	22927.312857041019	1.452121546119
6	23895	22943.120124783325	1.409066558816
6	23920	22962.581331538917	1.222784797847
6	23950	22984.802369017577	10.166504115447
6	23980	23026.007163994651	1.2796818709
6	24020	23090.7900151194	1.543826463215
6	24035	23108.922021202934	1.609196808934
6	24045	23126.04129878694	1.282847967185
6	24050	23131.373193572773	1.944085852616
6	24080	23161.448924703663	2.626802802326
6	24085	23164.096835867184	1.639189580083
6	24100	23173.752752897961	3.87549584228
6	24115	23209.999103693518	1.773934386112
6	24130	23217.623984856189	1.517660451122
6	24159	23242.810873605806	2.528025451068
6	24189	23251.943551203731	8.745796927654
6	24210	23278.918026864032	1.798332595266
6	24225	23310.122554689326	1.924227300473
6	24240	23316.246929390319	1.755662678201
6	24247	23319.864208994817	1.628216552734
6	24302	23358.805102919907	1.606335462257
6	24402	23444.989414512359	2.573371894164
6	24405	23446.382882012979	2.685117008166
6	24520	23562.765135130263	6.857293431711
6	24540	23577.654783415852	2.856414054348
6	24557	23592.03003132081	2.765923065266
6	24560	23593.308002854496	4.267610853695
6	24610	23666.330581233747	6.040717021968
6	24625	23686.934965207444	2.334210219383
6	24699	23749.639137887944	5.659170061765
6	24725	23764.238685155678	7.281969590095
6	24737	23780.381983560479	1.942363317683
6	24760	23796.103612615325	1.453256045096
6	24767	23798.892461729858	1.649427884258
6	24790	23815.253512228575	9.102756641195
6	24795	23817.848747524663	1.296295214631
6	24822	23831.817960462933	3.100267658916
6	24832	23834.864140869869	4.931896322908
6	24870	23868.521416141277	3.657505712411
6	24970	23925.087799910771	5.376710105155
6	24985	23939.882974358049	1.376454730704
6	25045	23992.98077344937	1.266270471364
6	25125	24038.507247846905	1.403803865498
6	25200	24103.838180280175	6.365469569334
6	25227	24118.436794443012	13.314634833344
6	25319	24194.283853757588	10.511472491411
6	25340	24217.694122386885	1.283476750925
6	25395	24256.506974799652	7.641536621467
6	25542	24406.393446364779	1.864653062075
6	25560	24427.022649425357	4.771554364017
6	25565	24438.421783978486	1.43749576509
6	25695	24580.513348673067	1.91560021583
6	25815	24677.03309592064	5.280435755012
6	25835	24698.74515023975	1.707717506774
6	25857	24725.432352953682	3.588737305886
6	25865	24737.350330642616	1.921986883134
6	25875	24766.147243930088	1.527914033271
6	25895	24798.788273570003	1.325091268867
6	25970	24854.233881957456	1.330186400376
6	25985	24865.239440395468	1.901339019276
6	25995	24871.536444912212	1.685020577721
6	26015	24888.922750064603	2.098159051624
6	26027	24900.362062056139	1.994886028953
6	26030	24902.270825264007	2.703134468132
6	26040	24914.131659893424	1.417914364487
6	26057	24932.618981052095	1.599594714306
6	26120	24989.382681463446	5.084802919723
6	26175	25027.886672365374	1.471085590497
6	26190	25046.278906774642	1.6320408253
6	26225	25058.747999799836	5.949050753377
6	26230	25071.913565014738	1.309998468868
6	26292	25138.209038451791	1.934662321769
6	26302	25141.755547612079	2.634630664086
6	26332	25169.923843283343	3.855167695749
6	26377	25185.672998715256	11.066984943466
6	26380	25187.286673379567	6.535482385568
6	26405	25196.045133749163	8.05472915303
6	26430	25211.729075286915	1.20190174412
6	26465	25246.571596510224	1.622894197516
6	26470	25250.254423530763	1.81975636296
6	26601	25393.704756902274	2.706573156771
6	26610	25399.069958650437	7.733170192127
6	26620	25404.990498738741	1.801739440486
6	26690	25494.39952941735	8.385143862552
6	26695	25508.963085154303	1.292828555405
6	26700	25524.182069410397	1.247694373317
6	26722	25544.638159018306	1.657837609574
6	26730	25550.939659059434	1.943053875491
6	26737	25553.613665370314	1.460724155419
6	26797	25617.434654445242	1.44523083251
6	26865	25665.570348777931	3.172404894298
6	26945	25738.19883638726	1.206506546959
6	26987	25762.640317648174	1.302137014829
6	27020	25783.456520645397	3.483281020733
6	27025	25788.764660944591	1.787981853448
6	27072	25840.62606816993	1.633535032533
6	27082	25846.580233325526	1.426693604514
6	27095	25851.146376298271	4.273834352401
6	27100	25854.485456964666	9.120039232766
6	27119	25866.136548021684	3.681881558582
6	27157	25894.979289601825	1.407499891147
6	27180	25931.584411010338	1.211971534602
6	27204	25946.344105243192	6.817474000408
6	27210	25949.715394951471	5.941146544866
6	27245	25988.645988032986	6.453581171026
6	27250	25998.283087698653	1.903327217884
6	27262	26008.177037543265	5.618038863841
6	27285	26023.704104376985	1.812241609953
6	27302	26030.653189834594	1.504317107979
6	27305	26032.541382052019	3.168537369743
6	27330	26039.161692018749	3.661542044924
6	27349	26047.278200637677	10.534216658097
6	27361	26050.40685549447	3.517821622653
6	27367	26052.863371631071	4.378945440133
6	27377	26057.199797178952	19.341138373732
6	27462	26101.741475375067	17.998851989
6	27467	26103.454179283116	6.257506581635
6	27495	26122.857829278791	4.54974365264
6	27510	26137.241271663026	1.969630485401
6	27515	26144.684464603766	1.28289863579
6	27520	26156.100323789974	1.386034546979
6	27540	26182.07699802598	1.938051169366
6	27545	26187.535417070227	1.87771285288
6	27605	26233.143727362752	2.261917882745
6	27645	26262.520201453786	1.46516099479
6	27660	26289.627136230217	1.829894323274
6	27695	26359.667237544508	1.207040585205
6	27710	26372.193543506254	1.627633788623
6	27726	26413.297609188396	1.630106409639
6	27735	26417.914194643672	5.970477737135
6	27760	26434.177174767445	1.510598003305
6	27782	26444.078023906892	1.59606253691
6	27850	26510.261153457294	8.140682860713
6	27875	26537.29743566765	1.814305053279
6	27899	26562.275668371325	1.821843219362
6	27934	26589.196016225022	6.442093175518
6	27942	26592.233874672827	3.644828270023
6	27945	26593.911313844648	6.899705568547
6	27970	26635.71775901933	4.876281350687
6	27995	26664.122270266758	3.713777634443
6	28010	26675.735955532751	1.675641676399
6	28090	26738.293507236834	1.307320356742
6	28100	26743.024999260027	1.848907404765
6	28112	26760.829977924699	8.518822203973
6	28119	26762.696304707924	2.349633417752
6	28170	26799.720857385631	1.204793371074
6	28185	26813.445079703553	1.517506173812
6	28195	26824.27003916916	1.489653749019
6	28250	26877.631258314792	8.211077075393
6	28315	26941.06167859717	1.791781855002
6	28355	26972.436535102414	2.011340607776
6	28385	26994.607945874796	7.070375918573
6	28427	27046.336094732658	2.078903220668
6	28545	27175.481285044774	25.596616561819
6	28555	27180.442858362701	1.509019965492
6	28584	27198.975582444061	1.990238634311
6	28655	27265.374700043215	1.361750029959
6	28680	27293.790444265613	5.630481710637
6	28712	27304.594731664377	2.951870586082
6	28765	27361.36308417161	1.499999706447
6	28824	27409.715550893951	10.957332318065
6	28832	27412.631113172914	7.415856136666
6	28835	27413.90456906728	3.732399294147
6	28840	27418.63353680905	1.986739084311
6	28875	27441.416099043	1.754279953933
6	28895	27460.965123241852	1.398982888274
6	28925	27492.898445458483	1.229555062763
6	28985	27548.399020041318	1.819714342989
6	29010	27565.551708557186	1.707561651245
6	29035	27592.362591003258	1.415710562569
6	29040	27610.459570898432	1.785131714679
6	29055	27627.934198914229	1.376909581944
6	29140	27694.370421366796	1.382900938019
6	29155	27704.38662339958	1.427865619585
6	29225	27810.078773921547	1.664938749559
6	29240	27826.600760588311	1.367247121036
6	29275	27866.873065077012	1.829627676681
6	29310	27893.256799023987	1.883689629473
6	29385	27948.938734898009	2.158447544479
6	29427	27991.503292124225	4.77224193133
6	29460	28047.538276473772	1.262647666968
6	29497	28093.444193888914	1.809732970499
6	29502	28095.32007991587	1.929594290785
6	29530	28115.436280234687	1.596276462451
6	29560	28141.671419764309	1.284553676471
6	29632	28212.731060318585	14.941397546589
6	29665	28250.731638367243	1.625021698698
6	29680	28263.773607603769	2.903725211046
6	29710	28284.911256063015	1.561109548993
6	29720	28301.976816222927	1.678044177964
6	29747	28343.897319893118	1.395181843825
6	29755	28353.046117501992	1.338252731599
6	29760	28357.072958780009	1.686482964642
6	29790	28372.218123727365	4.150351067463
6	29810	28411.031724918428	1.462320952676
6	29825	28440.865204510779	2.426394568149
6	29830	28455.875113254846	1.270300228894
6	29852	28464.463360603	4.928445730635
6	29855	28465.863191680084	6.378578393089
6	29860	28473.620605809677	1.468560759351
6	29935	28533.813120308553	1.563082870841
6	29959	28566.790139199616	1.381161375716
6	30005	28608.495300524891	3.223951124021
6	30015	28623.551356573507	1.723909371346
6	30025	28630.676990251952	1.403187929466
6	30040	28641.680282583305	1.255186973885
6	30085	28682.236098570766	1.989742413722
6	30090	28697.226985701112	1.264694210701
6	30115	28739.991636255204	1.316523493268
6	30130	28758.423290662673	2.108750939426
6	30142	28772.711650734211	1.916955738142
6	30192	28825.354282832533	6.782406082774
6	30277	28913.378465968716	1.283398710005
6	30294	28918.486453329284	3.399680758086
6	30330	28965.583253096919	1.649838297442
6	30335	28967.64817323261	1.696918163262
6	30399	29020.438748325108	1.76269316636
6	30445	29052.048972133139	7.217681797848
6	30455	29057.566594992036	1.567592171058
6	30480	29090.644143104933	3.278563245144
6	30505	29101.462674492978	3.332994067604
6	30510	29109.693208228098	1.600514520146
6	30550	29151.984207351753	6.297553529384
6	30557	29154.834621379402	1.565964563377
6	30607	29176.015772220185	5.086333276729
6	30645	29235.544902640469	1.889313069917
6	30655	29241.296320372855	1.874217322841
6	30665	29250.657541287434	1.816043273546
6	30680	29262.504299094106	1.916846310534
6	30725	29291.264386273549	6.032109386519
6	30767	29327.145506547269	1.964319976047
6	30815	29349.140119682718	1.731385165639
6	30892	29389.513146863133	4.358475312111
6	30895	29391.073632372544	3.728944640973
6	30905	29410.977171182575	1.695219444111
6	30932	29428.602924720493	1.967159345187
6	30940	29431.977721540739	2.800072371454
6	30990	29478.055257068653	1.538959408924
6	31032	29500.134556876149	3.011147416428
6	31060	29533.303889157827	1.971360995993
6	31150	29595.246528582411	3.573661653976
6	31334	29740.160419554525	12.187204901844
6	31340	29743.093047095165	3.927556254563
6	31380	29771.845463433525	13.006542057974
6	31455	29870.357460594802	1.483215309307
6	31500	29920.743740673983	1.647103508376
6	31560	29975.260629072361	1.577901231498

