version 2
run Third_exit_8-11-20191017-13:44:27-2046
attr configname Third_exit_8
attr datetime 20191017-13:44:27
attr experiment Third_exit_8
attr inifile omnetpp.ini
attr iterationvars ""
attr iterationvarsf ""
attr measurement ""
attr network ResponseTimeNetwork
attr processid 2046
attr repetition 11
attr replication #11
attr resultdir results
attr runnumber 11
attr seedset 11
param **.Source.interArrivalTime exponential(6s)
param **.jobPriority bernoulli(0.8)
param **.PS.serviceTimeU1 "uniform(1.2s, 2.0s)"
param **.PS.serviceTimeU2 "uniform(2.4s, 2.8s)"
param **.SS1.serviceTime exponential(1.4s)
param **.SS2.serviceTime exponential(2s)
param **.PS.exitProbability bernoulli(0.8)

vector 0 ResponseTimeNetwork.SS1 queueLength:vector ETV
attr interpolationmode sample-hold
attr title "queue length, vector"
vector 1 ResponseTimeNetwork.SS2 queueLength:vector ETV
attr interpolationmode sample-hold
attr title "queue length, vector"
vector 2 ResponseTimeNetwork.QueueU1 queueLength:vector ETV
attr interpolationmode sample-hold
attr title "queue length, vector"
vector 3 ResponseTimeNetwork.QueueU2 queueLength:vector ETV
attr interpolationmode sample-hold
attr title "queue length, vector"
vector 4 ResponseTimeNetwork.sink lifeTimeU1:vector ETV
attr interpolationmode none
attr title "lifetime of arrived jobs U1, vector"
attr unit s
vector 5 ResponseTimeNetwork.sink lifeTime:vector ETV
attr interpolationmode none
attr title "lifetime of arrived jobs, vector"
attr unit s
vector 6 ResponseTimeNetwork.sink lifeTimeU2:vector ETV
attr interpolationmode none
attr title "lifetime of arrived jobs U2, vector"
attr unit s
2	0	0	0
2	5	1.617189857511	1
2	6	2.92445558348	0
2	20	7.510471102994	1
2	21	8.435930482924	0
2	45	20.751291308974	1
2	46	21.529951594464	0
2	60	30.767435258287	1
2	61	31.2598191581	0
2	70	32.88062115109	1
2	71	34.606061589279	0
2	80	37.6574521532	1
2	81	37.962727327951	0
2	110	50.793163277203	1
2	111	52.099053387403	0
2	115	52.879042650702	1
2	116	53.93620198822	0
2	120	54.028328782608	1
2	121	55.170604816325	0
2	125	55.47635020577	1
2	126	56.426623056702	0
2	130	56.965249362663	1
2	132	57.327074825699	2
2	133	57.656177241042	1
2	138	59.488258138545	0
2	142	61.26124482205	1
2	143	61.3223552453	0
2	147	62.477526799317	1
2	148	63.181184153691	0
2	152	63.253997806919	1
2	154	64.555453615204	2
2	155	64.670370984696	1
2	159	65.472750599788	2
2	160	66.652080277786	1
2	163	67.902390374303	0
2	167	68.18519591511	1
2	168	69.118976760529	0
2	175	71.179863131613	1
2	176	72.322033204757	0
2	182	72.870868903513	1
2	183	74.10976738526	0
2	187	74.825689801477	1
2	189	75.174181954818	2
2	190	75.886219812617	1
2	193	77.213075614408	0
2	197	77.29142638355	1
2	200	78.935167406559	0
2	207	80.374119105142	1
2	208	81.883549037076	0
2	217	84.149607280341	1
2	218	85.093970189862	0
2	225	86.591682496174	1
2	227	87.863516718354	2
2	229	88.027487763842	3
2	230	88.155738561101	2
2	234	88.650525077949	3
2	235	89.467379349157	2
2	239	90.157775281389	3
2	240	91.165646556079	2
2	245	92.80483455161	1
2	249	93.051288626339	2
2	253	93.788399362802	3
2	254	94.298928649224	2
2	257	96.134026574403	1
2	261	97.204466209376	2
2	263	97.907369834114	3
2	265	97.94169138951	4
2	266	98.000456501603	3
2	270	99.511470557631	4
2	271	99.88965082398	3
2	275	100.903764002686	4
2	276	101.24406529019	3
2	279	102.854558219261	2
2	283	103.287272852071	3
2	284	104.08409750393	2
2	288	104.093926025283	3
2	290	104.252693378248	4
2	291	105.539193700686	3
2	295	105.777177349102	4
2	297	105.867947097734	5
2	298	107.266147580057	4
2	302	107.802347782011	5
2	303	108.670657026454	4
2	307	110.47875071826	5
2	308	110.546607845708	4
2	311	111.988339592762	3
2	314	113.538916128933	2
2	317	114.812047799177	1
2	321	115.313352432147	2
2	322	116.29314881774	1
2	326	116.544793081368	2
2	328	117.587871794194	3
2	329	117.768119467854	2
2	333	118.517828508992	3
2	334	119.314468264825	2
2	337	120.758565023973	1
2	340	122.697952694319	0
2	344	122.875933607487	1
2	346	124.406402521927	2
2	347	124.500202720113	1
2	351	125.321318217232	2
2	352	126.429100050464	1
2	356	126.582672526948	2
2	358	127.448313816489	3
2	359	127.996317322053	2
2	363	128.472979561453	3
2	367	128.74022264125	4
2	369	129.693688009159	5
2	370	129.934277515732	4
2	373	131.532274598688	3
2	377	132.996923673799	4
2	378	133.177825001314	3
2	381	134.818336578332	2
2	385	135.489716799682	3
2	387	136.032301590443	4
2	390	136.795276744351	3
2	393	138.338849600092	2
2	396	139.984066482507	1
2	399	141.477208249145	0
2	403	142.611266911261	1
2	405	143.110973819555	2
2	406	143.406644638688	1
2	410	143.637947902397	2
2	412	144.382119459668	3
2	413	145.351257378109	2
2	417	145.639519817147	3
2	418	146.887569994167	2
2	421	148.480293768891	1
2	424	150.198846105174	0
2	428	151.392689418298	1
2	429	151.525865713567	0
2	433	152.476334974561	1
2	435	152.492580900944	2
2	436	152.908295211256	1
2	440	152.998307093213	2
2	442	153.94044894562	3
2	443	154.108433013283	2
2	447	154.561249710224	3
2	448	155.424368577324	2
2	453	157.368052670792	1
2	456	158.856040661283	0
2	463	160.142663376524	1
2	464	161.890579204694	0
2	468	162.099162779591	1
2	470	162.535237022922	2
2	472	162.611376415987	3
2	475	163.609016382754	2
2	479	163.980178405499	3
2	481	164.986303021981	4
2	482	165.357582295932	3
2	486	165.375192677769	4
2	487	167.23477987802	3
2	490	168.686605514832	2
2	493	169.897251666397	1
2	496	171.270604818188	0
2	500	172.3289944994	1
2	501	173.254109159731	0
2	505	173.558951955736	1
2	507	174.469763193489	2
2	508	175.090635463842	1
2	512	175.951423744503	2
2	513	176.440472930916	1
2	517	176.567133563031	2
2	518	177.683016794235	1
2	522	179.015594253486	2
2	523	179.401234304779	1
2	527	180.341256636931	2
2	530	181.146481541791	1
2	534	181.772552557059	2
2	535	182.379225330488	1
2	540	183.621586825014	0
2	547	185.328197609019	1
2	549	186.175471285528	2
2	551	186.691692762029	3
2	552	186.846031052121	2
2	555	188.273678550185	1
2	558	189.919766524681	0
2	562	190.086866248916	1
2	565	191.651404554085	0
2	572	193.523538035794	1
2	574	194.642726931313	2
2	576	194.730114547585	3
2	577	194.916725752936	2
2	581	195.947689930723	3
2	582	196.315461501726	2
2	586	196.531867887141	3
2	588	196.862371264825	4
2	590	197.582629369923	5
2	591	197.677725487263	4
2	594	198.899911612519	3
2	598	199.491584356423	4
2	600	199.818377650262	5
2	604	200.224496590416	6
2	605	200.438039593273	5
2	609	200.500513920848	6
2	611	201.676566967467	7
2	612	201.689184754589	6
2	616	202.479083024819	7
2	617	203.308657415645	6
2	621	203.760665951418	7
2	623	203.920631192291	8
2	624	205.230775361383	7
2	628	205.353637977821	8
2	630	205.862064509674	9
2	631	207.119889509553	8
2	635	207.332060806384	9
2	637	208.626485084124	10
2	638	208.973258216554	9
2	642	209.056995903201	10
2	644	210.13170981323	11
2	645	210.357005195008	10
2	648	211.891674318971	9
2	652	213.620914259005	10
2	654	213.837322349903	11
2	655	213.864240895087	10
2	659	215.215133478325	11
2	661	215.23180039226	12
2	662	215.489643899785	11
2	665	217.407256226116	10
2	669	218.078484348332	11
2	670	218.794687034995	10
2	674	219.291071933078	11
2	676	219.533914378547	12
2	677	220.389530527652	11
2	681	221.578147764337	12
2	682	221.888998984978	11
2	686	223.433388796112	12
2	687	223.508366794199	11
2	690	224.756142575354	10
2	693	226.288388589644	9
2	697	226.865551943034	10
2	698	227.82103623102	9
2	701	229.040108076358	8
2	705	229.307492976948	9
2	707	229.842738106204	10
2	708	230.459301988655	9
2	711	232.365707404786	8
2	715	234.048326264138	9
2	716	234.318274598257	8
2	720	235.579913351601	9
2	721	235.926217306839	8
2	725	236.376719403375	9
2	727	237.720348324797	10
2	728	237.87622065066	9
2	732	238.221016023673	10
2	735	239.55079333658	9
2	738	240.981098747129	8
2	742	241.281221631507	9
2	744	241.842897972937	10
2	745	242.88313739902	9
2	749	244.072989283902	10
2	751	244.441437324515	11
2	753	244.540736656267	12
2	755	244.802344602234	13
2	756	244.84580418809	12
2	762	245.414305117448	13
2	764	246.205725108291	14
2	765	246.305648882935	13
2	768	247.520344800936	12
2	772	247.768737588736	13
2	773	249.31360770377	12
2	776	250.793048527154	11
2	780	251.416720082484	12
2	782	252.3719864696	13
2	783	252.713160556431	12
2	787	253.360692838145	13
2	788	254.699098943795	12
2	792	255.920094259765	13
2	793	256.037774963367	12
2	797	256.073055103179	13
2	799	256.999764298054	14
2	800	257.997837382804	13
2	803	259.885734326828	12
2	806	261.177903944503	11
2	809	262.648854715812	10
2	812	264.274646857443	9
2	818	265.862652737459	10
2	820	265.900005635251	11
2	821	265.943782124917	10
2	825	266.121657815524	11
2	826	267.557497644859	10
2	830	268.22871472173	11
2	831	268.7798586548	10
2	835	270.013284520106	11
2	836	270.692262347105	10
2	839	272.687283520463	9
2	842	274.027455416384	8
2	846	274.345938229992	9
2	848	274.360129524777	10
2	849	275.706458466935	9
2	853	275.921864385264	10
2	854	277.564831113319	9
2	858	278.069075662649	10
2	859	279.552174493733	9
2	862	280.810229892532	8
2	866	280.944229309952	9
2	867	282.311295701439	8
2	871	283.659822997303	9
2	872	284.209336781191	8
2	876	285.052710171247	9
2	878	285.184214935131	10
2	879	285.872908792706	9
2	883	286.296520688304	10
2	884	287.643739065775	9
2	888	287.854264102852	10
2	889	288.943044260019	9
2	893	290.298176607386	10
2	895	290.337901758274	11
2	896	290.777713693181	10
2	900	291.953285240381	11
2	902	292.242410085416	12
2	903	292.420531141261	11
2	907	293.29444089891	12
2	909	293.92311630617	13
2	910	294.152170331838	12
2	914	295.228436794014	13
2	915	295.68337498835	12
2	918	296.935974516223	11
2	922	297.222810421826	12
2	924	298.410450970649	13
2	925	298.670801055866	12
2	928	300.240743272814	11
2	932	300.871534705641	12
2	934	301.29502948819	13
2	935	301.762460122879	12
2	938	303.023293220128	11
2	942	304.160507842746	12
2	943	304.445919520284	11
2	946	306.312567452217	10
2	950	307.745295494814	11
2	951	307.812904779489	10
2	955	308.24525545113	11
2	956	309.015356077502	10
2	959	310.422627379807	9
2	963	311.060082083651	10
2	964	312.073684453653	9
2	968	312.601786124573	10
2	970	313.072294898589	11
2	972	313.245898220117	12
2	973	313.788070904525	11
2	977	313.962387762095	12
2	978	315.47169269553	11
2	982	315.493869899651	12
2	984	315.676734513526	13
2	985	317.157959687585	12
2	988	318.467573136153	11
2	992	318.95453722706	12
2	994	319.44224538688	13
2	995	320.191515635761	12
2	998	321.764010563741	11
2	1002	322.046417101446	12
2	1004	322.566129988538	13
2	1005	323.756208131524	12
2	1009	323.960568542468	13
2	1011	325.052709933607	14
2	1012	325.61297275337	13
2	1016	326.758828692876	14
2	1018	327.203757553051	15
2	1019	327.304039251866	14
2	1023	327.378950416306	15
2	1025	328.000875431503	16
2	1027	328.113228366823	17
2	1028	329.172518379675	16
2	1031	330.755491091745	15
2	1034	332.720594242835	14
2	1038	333.718017650711	15
2	1040	333.935835991251	16
2	1043	334.256296728799	15
2	1046	335.554840574475	14
2	1050	336.013729925048	15
2	1051	337.159247996161	14
2	1055	338.543370060537	15
2	1056	338.867558019856	14
2	1060	339.125820523722	15
2	1062	339.477889091013	16
2	1063	340.368738784889	15
2	1067	340.480756820217	16
2	1068	342.319325422371	15
2	1072	342.390198505481	16
2	1074	343.57748447365	17
2	1075	343.938272650974	16
2	1079	344.113231931149	17
2	1080	345.633601350771	16
2	1083	347.183788683513	15
2	1086	349.157760649795	14
2	1089	350.612255931894	13
2	1092	352.037719895939	12
2	1096	352.850244689676	13
2	1097	353.989711273151	12
2	1101	354.425134936602	13
2	1102	355.832939088407	12
2	1106	356.113786823459	13
2	1107	357.797127119328	12
2	1110	359.226918739143	11
2	1114	359.340187968887	12
2	1116	360.688185091847	13
2	1117	360.747467502642	12
2	1123	361.237958966371	13
2	1124	362.643128535214	12
2	1128	362.747776434446	13
2	1129	364.476720372464	12
2	1132	365.769906642165	11
2	1136	365.914351930601	12
2	1138	366.26158551914	13
2	1140	366.563402286865	14
2	1141	367.33142761017	13
2	1145	368.230106158106	14
2	1146	369.078101233456	13
2	1150	369.16515051025	14
2	1151	370.516149006102	13
2	1155	371.638680573656	14
2	1156	371.996492098707	13
2	1160	372.227901734899	14
2	1161	373.799147569265	13
2	1165	374.63756684767	14
2	1166	375.399674781848	13
2	1170	376.534497158742	14
2	1171	377.058458607149	13
2	1175	377.298699266654	14
2	1176	378.75942296448	13
2	1179	380.169772708666	12
2	1182	381.807467590522	11
2	1186	382.462985024841	12
2	1188	382.51429447738	13
2	1190	383.410587428421	14
2	1191	383.779423762549	13
2	1195	384.226782514344	14
2	1199	384.616023924053	15
2	1201	385.199481963049	16
2	1202	385.759580255363	15
2	1205	387.425234544527	14
2	1208	389.160160675522	13
2	1212	389.22288239891	14
2	1214	389.754921982123	15
2	1216	389.807560180079	16
2	1217	390.533894862671	15
2	1221	391.127391497342	16
2	1222	392.095016985078	15
2	1225	394.045523090166	14
2	1229	394.247658311452	15
2	1230	395.592699028057	14
2	1234	396.398424669906	15
2	1235	397.036635157903	14
2	1239	398.58399091251	15
2	1240	398.752715265257	14
2	1244	399.237605685764	15
2	1246	399.451468579384	16
2	1247	400.658399953013	15
2	1250	402.344741947269	14
2	1254	403.562349517585	15
2	1255	404.131824850729	14
2	1258	405.698244901998	13
2	1262	405.990701429473	14
2	1263	407.490384850903	13
2	1267	407.841743798564	14
2	1269	408.08340031488	15
2	1271	408.682370295274	16
2	1272	408.899388473547	15
2	1275	410.147557901285	14
2	1278	411.519411472484	13
2	1282	412.479300433904	14
2	1283	413.196622872792	13
2	1287	413.525977740733	14
2	1288	414.695412992567	13
2	1292	416.308393761851	14
2	1293	416.371592976034	13
2	1297	417.657734787737	14
2	1298	418.059807391532	13
2	1302	418.359260520084	14
2	1303	419.43408338397	13
2	1306	421.047009384513	12
2	1310	422.615613180366	13
2	1311	422.932804807901	12
2	1315	424.136454358225	13
2	1316	424.412091561474	12
2	1320	425.432560382566	13
2	1321	426.118690493211	12
2	1325	426.366792230686	13
2	1326	427.54244369182	12
2	1330	427.577852065349	13
2	1332	428.201985205233	14
2	1333	428.964654353328	13
2	1336	430.838232097655	12
2	1340	430.918561854501	13
2	1341	432.226066775128	12
2	1345	433.183458682984	13
2	1347	433.571305515281	14
2	1348	434.028018410943	13
2	1352	435.216477587532	14
2	1354	435.488252952839	15
2	1356	435.879349470275	16
2	1357	435.998721311867	15
2	1361	436.743210682781	16
2	1362	437.62816033072	15
2	1366	437.634842819042	16
2	1367	439.595927546985	15
2	1371	440.69158198266	16
2	1372	441.19080814968	15
2	1376	442.156012683366	16
2	1377	442.498793036371	15
2	1381	443.111154149739	16
2	1382	444.353804365612	15
2	1385	445.972032583385	14
2	1388	447.48915799006	13
2	1392	447.67390919055	14
2	1394	447.937571527474	15
2	1396	448.014333597795	16
2	1397	449.30519341088	15
2	1400	451.225868528961	14
2	1404	452.3470979329	15
2	1406	453.108478334684	16
2	1407	453.202073996021	15
2	1411	453.372896039678	16
2	1412	454.649812007389	15
2	1416	454.849572500205	16
2	1417	456.294417160629	15
2	1421	456.394690815005	16
2	1423	457.528086459778	17
2	1424	458.056094886801	16
2	1427	459.578457590258	15
2	1430	460.886403840846	14
2	1434	461.288190415453	15
2	1435	462.104346599496	14
2	1439	462.560010423031	15
2	1440	464.099477812528	14
2	1444	465.391465279722	15
2	1445	465.49744137644	14
2	1449	466.353128044347	15
2	1450	466.722130284153	14
2	1453	468.453722553767	13
2	1456	469.958922359787	12
2	1460	470.178125854587	13
2	1462	470.65966119595	14
2	1463	471.825355723195	13
2	1466	473.612805213101	12
2	1470	474.033320736233	13
2	1471	475.300654172219	12
2	1475	476.086994839508	13
2	1476	477.190128105387	12
2	1480	477.284827815694	13
2	1481	479.027149074405	12
2	1485	479.732847196941	13
2	1486	480.57503089185	12
2	1490	481.345717242786	13
2	1492	481.546256690914	14
2	1493	481.902213846214	13
2	1497	482.918799080746	14
2	1499	483.018869839845	15
2	1500	483.200605248168	14
2	1504	484.18560264278	15
2	1506	484.289492411427	16
2	1507	484.431503348865	15
2	1510	485.791523488492	14
2	1514	486.716632562496	15
2	1515	487.036505971544	14
2	1519	487.313134105195	15
2	1520	488.329616002806	14
2	1524	489.52457299452	15
2	1525	489.569430724785	14
2	1528	491.23169121749	13
2	1531	492.758431346968	12
2	1535	493.357703487036	13
2	1537	493.524696786517	14
2	1539	493.894638622334	15
2	1541	494.465312671565	16
2	1542	494.582999932088	15
2	1546	494.742533146527	16
2	1548	495.554128890443	17
2	1549	496.54059628702	16
2	1553	497.089810091342	17
2	1554	498.336904300072	16
2	1558	498.443385404575	17
2	1560	499.131854487146	18
2	1562	499.576332739267	19
2	1564	500.092261226203	20
2	1565	500.25301108721	19
2	1568	502.191409224526	18
2	1572	502.974003645665	19
2	1574	503.867384592914	20
2	1575	503.918988697113	19
2	1579	504.820995715227	20
2	1580	505.739089417154	19
2	1584	505.795622502164	20
2	1585	507.295774942892	19
2	1588	509.100102075631	18
2	1592	509.585084087096	19
2	1594	510.56784963927	20
2	1595	510.58903024781	19
2	1599	510.785648765654	20
2	1600	512.296619069087	19
2	1603	514.115060912328	18
2	1607	514.319860953214	19
2	1608	516.113490329938	18
2	1612	517.63739484248	19
2	1613	517.668451019073	18
2	1617	519.431733523852	19
2	1618	519.608325460808	18
2	1622	520.094919043108	19
2	1625	521.482380755501	18
2	1629	522.639330770335	19
2	1630	522.765015686372	18
2	1634	523.049913766381	19
2	1635	524.14975499201	18
2	1638	525.636614028992	17
2	1642	525.88647024048	18
2	1643	527.089321101712	17
2	1647	527.172775414154	18
2	1649	528.506175144739	19
2	1650	528.562965641053	18
2	1654	529.85578852937	19
2	1655	530.129727240907	18
2	1658	531.530131976375	17
2	1661	532.881875289114	16
2	1665	534.097877510369	17
2	1666	534.287823850544	16
2	1670	535.012651378913	17
2	1671	536.027522369729	16
2	1675	537.08554567246	17
2	1676	537.664485002005	16
2	1680	537.792837271064	17
2	1682	538.03113340397	18
2	1684	539.159939624362	19
2	1685	539.32883352253	18
2	1689	539.510373541335	19
2	1691	539.599576848758	20
2	1692	540.75401331901	19
2	1695	542.408506904798	18
2	1699	542.983854163546	19
2	1700	543.620143872196	18
2	1704	543.693202741344	19
2	1706	543.803948375968	20
2	1707	545.429974685678	19
2	1711	545.487626786017	20
2	1712	546.956653373385	19
2	1717	548.796097415196	18
2	1721	549.71147071314	19
2	1723	550.414164993004	20
2	1724	550.651753635215	19
2	1728	551.833891140585	20
2	1729	552.162370439874	19
2	1732	554.020076305488	18
2	1735	555.751788386213	17
2	1738	557.454737935098	16
2	1742	558.544746499857	17
2	1743	558.941886339033	16
2	1747	559.212202899423	17
2	1749	560.456805042172	18
2	1750	560.538291476736	17
2	1753	562.008259349572	16
2	1757	562.429818452381	17
2	1759	563.37433083923	18
2	1761	563.389377182091	19
2	1762	563.689133123192	18
2	1766	563.755289613419	19
2	1768	564.692451889698	20
2	1770	565.513130200901	21
2	1771	565.600497235241	20
2	1775	566.144285192969	21
2	1776	567.023077952372	20
2	1779	569.001759605179	19
2	1783	569.858624113021	20
2	1784	570.62688875671	19
2	1787	572.063753427635	18
2	1791	572.703617779422	19
2	1792	574.000398459355	18
2	1797	575.841484946268	17
2	1801	575.998578873946	18
2	1802	577.192614535312	17
2	1806	578.083326841078	18
2	1807	578.559399993974	17
2	1811	579.821175399348	18
2	1813	579.839323050819	19
2	1814	580.089009644906	18
2	1818	580.521280357228	19
2	1820	581.07620706383	20
2	1822	581.361735663637	21
2	1824	581.535360225846	22
2	1826	581.609097933031	23
2	1827	581.818444229918	22
2	1831	582.50297126804	23
2	1833	582.987014680692	24
2	1834	583.373235076363	23
2	1838	583.748773909317	24
2	1840	584.521814124343	25
2	1841	585.074309447105	24
2	1845	585.550416316135	25
2	1848	587.000448151748	24
2	1852	587.428660150838	25
2	1853	588.656683910149	24
2	1857	589.419300051865	25
2	1858	589.98743877809	24
2	1861	591.46170051943	23
2	1865	592.246939534805	24
2	1866	592.884936008858	23
2	1870	593.168162254922	24
2	1871	594.585415960545	23
2	1874	596.277092011156	22
2	1878	597.197228180186	23
2	1879	598.217632063548	22
2	1882	599.4858431787	21
2	1885	600.854286931153	20
2	1889	602.393046767867	21
2	1890	602.54945022713	20
2	1893	603.764651645791	19
2	1897	604.121533560945	20
2	1898	605.609635423009	19
2	1901	607.186813410257	18
2	1904	608.560193647888	17
2	1908	609.257939501692	18
2	1909	610.29251161914	17
2	1913	611.044441951647	18
2	1915	611.562739265912	19
2	1917	611.728510986653	20
2	1918	612.039254701581	19
2	1922	612.390444922112	20
2	1924	612.714396617929	21
2	1925	613.883177573864	20
2	1929	613.959115602592	21
2	1930	615.34056210376	20
2	1933	616.785891641561	19
2	1936	618.515931432579	18
2	1940	619.353903686952	19
2	1943	620.416186427024	18
2	1947	621.220787574645	19
2	1948	621.953917259608	18
2	1952	622.496106172021	19
2	1954	622.854569260404	20
2	1955	623.619244717505	19
2	1959	624.164433398313	20
2	1960	625.165732348222	19
2	1964	625.280242862885	20
2	1965	626.79671549562	19
2	1969	627.52323451533	20
2	1970	628.714160748269	19
2	1974	628.863798599689	20
2	1977	630.47156651232	19
2	1980	632.158554208722	18
2	1984	632.334799898642	19
2	1986	632.382298128247	20
2	1987	633.981920659427	19
2	1991	634.540500409872	20
2	1992	635.318182932098	19
2	1996	635.597902635844	20
2	1998	635.806120321584	21
2	1999	637.013157662821	20
2	2002	638.242277403248	19
2	2006	639.4209523842	20
2	2007	640.184732987431	19
2	2010	641.47101915132	18
2	2014	641.817049161883	19
2	2015	643.435091473234	18
2	2019	643.615818573461	19
2	2020	644.63841131225	18
2	2023	646.351376902198	17
2	2027	647.086562578457	18
2	2028	648.050513908898	17
2	2032	649.175870146255	18
2	2034	649.600483911034	19
2	2035	649.945539345106	18
2	2039	650.04186491269	19
2	2042	651.802586784473	18
2	2047	653.193131589404	17
2	2051	653.535737806263	18
2	2053	653.877975417201	19
2	2055	654.38531547883	20
2	2058	654.856499140783	19
2	2062	654.936494896635	20
2	2064	655.754781284693	21
2	2066	656.084245150093	22
2	2067	656.420601276009	21
2	2070	657.888252033739	20
2	2074	658.253340143789	21
2	2076	659.652766360688	22
2	2077	659.717307505644	21
2	2080	661.50081194125	20
2	2084	661.810886098093	21
2	2086	662.518635319302	22
2	2088	662.556953734519	23
2	2089	662.926274551711	22
2	2093	663.523582425566	23
2	2094	664.797012945897	22
2	2098	665.315968282503	23
2	2100	666.051869625355	24
2	2101	666.059843177981	23
2	2105	666.692755190981	24
2	2106	667.677063414715	23
2	2110	668.771122417689	24
2	2111	669.272340069972	23
2	2115	670.55762469131	24
2	2116	670.565202705264	23
2	2120	671.520210397592	24
2	2121	672.360697923675	23
2	2125	672.572728608532	24
2	2126	674.043525906354	23
2	2130	674.616750383964	24
2	2131	675.314935128651	23
2	2134	676.718814000189	22
2	2138	676.881729531626	23
2	2140	677.198605126874	24
2	2142	678.07990932724	25
2	2144	678.129801600262	26
2	2145	678.46079128392	25
2	2149	678.705199230448	26
2	2150	680.190893087983	25
2	2153	681.675340374075	24
2	2157	682.687265430827	25
2	2158	683.152245740295	24
2	2161	684.591601047554	23
2	2165	684.738449324329	24
2	2166	686.591426353604	23
2	2169	688.099870745168	22
2	2172	689.343340446317	21
2	2175	690.932034888008	20
2	2179	691.52561497762	21
2	2181	692.565272623057	22
2	2182	692.628651891538	21
2	2186	692.879426524488	22
2	2188	693.756975453212	23
2	2189	694.117573381477	22
2	2193	694.979603413905	23
2	2194	695.596162751579	22
2	2198	696.611186871899	23
2	2199	696.833242486307	22
2	2203	696.987977037192	23
2	2204	698.595716098772	22
2	2207	700.479005365895	21
2	2211	701.704757431255	22
2	2213	702.068783392875	23
2	2214	702.370012249874	22
2	2218	703.435225734134	23
2	2220	703.566665933083	24
2	2221	704.002860412637	23
2	2225	704.691808109172	24
2	2226	705.526727911907	23
2	2229	707.272647663097	22
2	2232	708.844513797651	21
2	2236	710.236869101025	22
2	2237	710.331501497964	21
2	2241	710.825372870667	22
2	2242	711.642991293299	21
2	2245	713.349346125389	20
2	2249	715.085483192858	21
2	2250	715.127642260755	20
2	2253	716.994756127971	19
2	2257	718.265578450512	20
2	2258	718.745454076568	19
2	2262	720.051788582823	20
2	2263	720.296477999429	19
2	2266	722.162924708689	18
2	2270	722.432598369567	19
2	2271	724.003097951675	18
2	2274	725.665985719936	17
2	2278	727.335526723743	18
2	2279	727.444844929205	17
2	2282	728.952556825878	16
2	2286	729.167857355967	17
2	2288	729.345395195371	18
2	2290	730.67945858822	19
2	2291	730.796320385935	18
2	2295	731.264725820904	19
2	2297	732.257592495301	20
2	2298	732.497353863606	19
2	2301	733.755226793961	18
2	2305	734.017868255788	19
2	2306	735.472167259903	18
2	2310	735.493773253295	19
2	2311	737.110606451595	18
2	2316	738.781394643413	17
2	2319	740.223973047624	16
2	2323	742.03173446679	17
2	2324	742.128310282233	16
2	2328	742.564290359894	17
2	2329	743.614820391389	16
2	2333	744.0060143659	17
2	2334	744.895681843611	16
2	2337	746.870328691679	15
2	2340	748.112951909455	14
2	2344	749.145554644464	15
2	2345	749.876368687006	14
2	2349	749.896861450895	15
2	2351	750.719998300571	16
2	2352	751.273316752987	15
2	2355	752.874542435521	14
2	2358	754.832649822609	13
2	2362	755.005477328052	14
2	2364	755.224363653198	15
2	2366	755.790428339903	16
2	2367	756.060865907261	15
2	2371	756.254039780388	16
2	2372	757.263995274978	15
2	2375	758.854673560227	14
2	2379	759.184262295135	15
2	2380	760.300555647428	14
2	2383	761.818278926874	13
2	2387	762.867192863201	14
2	2389	763.001461788047	15
2	2390	763.586197617913	14
2	2393	764.986310557912	13
2	2397	764.997938513837	14
2	2399	765.26062717892	15
2	2400	766.808901687044	14
2	2404	767.365892761502	15
2	2406	768.197855417326	16
2	2407	768.377163433175	15
2	2411	768.38335116991	16
2	2412	769.606416823606	15
2	2416	769.928523668562	16
2	2417	771.348394797261	15
2	2421	771.356918394285	16
2	2422	773.290087856057	15
2	2425	774.824158796373	14
2	2429	774.956364621695	15
2	2431	775.378782990648	16
2	2433	775.483389835208	17
2	2434	776.58678406224	16
2	2438	777.381930116612	17
2	2440	777.44566257197	18
2	2441	778.500538883436	17
2	2444	779.872985859666	16
2	2448	780.504408036392	17
2	2449	781.548830019202	16
2	2453	782.390587635005	17
2	2454	783.081464231279	16
2	2458	783.22246010246	17
2	2460	783.954493855183	18
2	2462	784.665047526497	19
2	2463	784.92316304062	18
2	2466	786.247372752693	17
2	2470	787.329266695513	18
2	2471	787.960340666105	17
2	2475	788.833643020675	18
2	2476	789.51909042642	17
2	2480	789.53280470137	18
2	2481	790.918076127288	17
2	2485	790.962098539481	18
2	2486	792.699086425905	17
2	2490	792.98201828185	18
2	2492	793.429747768551	19
2	2493	794.635439923671	18
2	2496	796.470312502873	17
2	2500	796.795533629057	18
2	2501	797.838540027742	17
2	2505	797.922702794695	18
2	2507	798.862603185492	19
2	2508	799.620185290356	18
2	2512	800.798945846192	19
2	2513	801.107418936011	18
2	2517	801.450430118335	19
2	2518	802.876165787396	18
2	2521	804.412059408133	17
2	2525	805.641668386472	18
2	2527	805.802644544795	19
2	2528	806.063667904106	18
2	2532	807.363399098292	19
2	2533	807.402705906224	18
2	2537	807.817916970579	19
2	2538	808.648955080551	18
2	2541	810.57009350386	17
2	2545	811.962414068744	18
2	2546	812.036559523535	17
2	2550	812.08368012629	18
2	2552	812.443158312849	19
2	2554	812.599205740427	20
2	2556	813.160478859865	21
2	2557	813.712144301538	20
2	2560	815.179624021318	19
2	2564	815.300000283332	20
2	2566	816.179489242794	21
2	2567	816.869968274314	20
2	2571	816.951629716161	21
2	2572	818.291441556145	20
2	2575	819.710848740567	19
2	2579	820.297562196605	20
2	2580	821.045119341914	19
2	2584	822.480326652642	20
2	2585	822.706612379928	19
2	2589	823.82877816995	20
2	2590	824.283200890091	19
2	2594	824.627607719791	20
2	2595	825.735457394537	19
2	2598	827.610291794766	18
2	2602	827.713319370313	19
2	2604	828.073272477687	20
2	2606	828.566293667085	21
2	2607	829.291198200252	20
2	2611	829.375207730034	21
2	2614	831.104683808316	20
2	2618	832.421563581799	21
2	2619	832.803992387172	20
2	2622	834.305463196602	19
2	2626	835.035331708604	20
2	2627	835.993309534792	19
2	2632	837.589946224991	18
2	2636	837.61991016491	19
2	2637	839.116996321346	18
2	2643	840.094520606994	19
2	2644	840.749652627561	18
2	2647	842.013349953931	17
2	2651	842.624005751301	18
2	2652	843.505302622806	17
2	2655	844.802831533815	16
2	2659	846.270883132171	17
2	2660	846.405619364123	16
2	2664	846.752841704493	17
2	2666	846.766909031303	18
2	2668	847.202204973778	19
2	2669	847.753309411074	18
2	2673	847.775650523914	19
2	2674	849.345511937964	18
2	2677	850.848182273175	17
2	2681	850.976898495352	18
2	2682	852.075577955212	17
2	2685	853.290693874549	16
2	2691	853.909242712938	17
2	2692	854.580110780414	16
2	2695	856.498076232601	15
2	2699	856.532956182896	16
2	2700	858.126270234663	15
2	2704	858.480952930399	16
2	2706	859.201371469535	17
2	2708	859.770603751671	18
2	2709	859.823102327701	17
2	2712	861.648851510961	16
2	2715	863.142325979922	15
2	2719	863.510962606235	16
2	2721	864.087570372346	17
2	2722	864.409172175344	16
2	2728	865.467521659403	17
2	2729	866.185120971579	16
2	2733	866.467311185463	17
2	2734	867.484958597351	16
2	2737	868.956649905149	15
2	2741	869.264873814851	16
2	2743	869.294654206389	17
2	2744	870.421131279025	16
2	2747	871.970539982881	15
2	2751	872.959960573627	16
2	2752	873.320757772479	15
2	2756	873.500433936965	16
2	2757	875.109601552304	15
2	2761	875.563844658113	16
2	2763	875.873364260433	17
2	2764	876.591791531336	16
2	2767	878.152743276287	15
2	2771	878.714189752209	16
2	2772	879.462823530924	15
2	2776	880.999588436714	16
2	2777	881.316059135352	15
2	2781	881.773172178127	16
2	2783	882.422402455532	17
2	2784	882.842868338418	16
2	2788	882.869503738508	17
2	2790	883.506693030922	18
2	2792	883.62953573338	19
2	2793	884.338412637715	18
2	2797	884.540751094272	19
2	2799	885.959605907046	20
2	2800	886.201706362036	19
2	2803	887.829312305045	18
2	2806	889.119190017585	17
2	2809	890.831154629853	16
2	2812	892.4913596575	15
2	2816	892.604312484943	16
2	2817	894.189509926815	15
2	2821	894.46707216461	16
2	2823	895.420760416454	17
2	2824	895.562422841866	16
2	2828	895.774133432949	17
2	2830	895.852148883989	18
2	2832	896.132256239771	19
2	2834	896.867704740011	20
2	2836	897.093715851736	21
2	2837	897.55246644475	20
2	2841	898.448291723396	21
2	2843	898.935542390174	22
2	2844	899.136194877405	21
2	2848	900.065700611569	22
2	2849	900.74138170619	21
2	2853	901.648833641058	22
2	2854	902.628780304347	21
2	2858	902.81497880644	22
2	2860	903.253194922939	23
2	2861	904.007736937036	22
2	2865	904.966762732397	23
2	2866	905.692042163653	22
2	2869	907.352154381094	21
2	2873	908.407533413195	22
2	2874	908.930985964728	21
2	2878	909.164963493838	22
2	2880	909.9184171173	23
2	2882	910.870657746652	24
2	2883	910.912549235193	23
2	2886	912.411547185188	22
2	2890	913.138813165875	23
2	2891	913.910518338984	22
2	2895	914.125145692504	23
2	2896	915.314896694278	22
2	2899	916.983406546419	21
2	2902	918.930082404134	20
2	2906	919.420818434375	21
2	2907	920.873453773265	20
2	2911	921.06189559049	21
2	2913	921.399576038065	22
2	2914	922.761721891244	21
2	2918	923.38140045914	22
2	2919	924.272463820768	21
2	2922	926.137958209855	20
2	2926	927.355295170899	21
2	2927	927.606967872088	20
2	2930	928.915050045853	19
2	2933	930.210292420802	18
2	2937	930.227985861124	19
2	2941	931.016969333607	20
2	2943	931.368186919779	21
2	2944	931.949857780976	20
2	2948	932.712735251383	21
2	2949	933.252633628143	20
2	2952	934.697603678783	19
2	2956	936.032203498826	20
2	2957	936.353862169465	19
2	2960	937.752241739897	18
2	2963	939.265487223199	17
2	2966	940.853085778362	16
2	2970	941.077497376164	17
2	2971	942.442665368586	16
2	2975	942.458772160687	17
2	2976	943.906509157351	16
2	2979	945.756675154424	15
2	2983	946.195631085734	16
2	2984	947.508446535921	15
2	2987	948.807863048731	14
2	2990	950.584108478843	13
2	2993	952.206157229363	12
2	2997	952.813295292216	13
2	2998	953.668420414894	12
2	3002	954.104903133566	13
2	3003	955.657427120476	12
2	3007	955.803762587665	13
2	3009	957.047356711795	14
2	3010	957.450152148946	13
2	3014	957.68827205991	14
2	3015	959.279438567801	13
2	3018	960.642175054817	12
2	3022	961.715352949426	13
2	3023	961.865876219875	12
2	3027	963.094161991068	13
2	3028	963.487200949422	12
2	3032	963.644478358614	13
2	3034	964.626774898526	14
2	3036	964.745820601782	15
2	3038	964.805520784147	16
2	3039	965.014683873474	15
2	3043	966.081413402069	16
2	3044	966.831846728444	15
2	3048	967.68389668094	16
2	3049	968.139627263404	15
2	3053	968.520588651732	16
2	3055	969.078566334321	17
2	3057	969.239781061943	18
2	3059	969.448665196291	19
2	3061	969.518774216615	20
2	3062	969.958834243275	19
2	3066	970.566845133583	20
2	3067	971.795755737915	19
2	3071	973.149406079393	20
2	3073	973.24468197054	21
2	3074	973.618661229021	20
2	3078	973.90205167148	21
2	3080	974.939752556688	22
2	3081	975.135721909522	21
2	3085	975.305976027021	22
2	3089	975.992728933469	23
2	3090	976.652213295816	22
2	3094	977.080957794027	23
2	3095	978.437727759114	22
2	3099	979.323986866866	23
2	3100	979.673026146075	22
2	3104	979.78598177048	23
2	3106	979.951918505769	24
2	3108	981.138367226974	25
2	3109	981.138813274248	24
2	3113	981.441878573138	25
2	3115	981.899195629516	26
2	3116	982.413122736371	25
2	3119	984.074569319456	24
2	3123	984.509525913114	25
2	3124	985.54118348275	24
2	3127	986.926910706504	23
2	3131	987.551273302518	24
2	3133	987.572011006285	25
2	3134	988.316999926313	24
2	3138	988.627078211263	25
2	3139	989.873108976416	24
2	3142	991.213242831349	23
2	3146	991.962871870845	24
2	3148	992.984326124448	25
2	3149	993.151476148225	24
2	3153	993.194159838937	25
2	3155	993.795785322354	26
2	3157	994.319236423071	27
2	3158	994.367341416783	26
2	3161	996.089984657697	25
2	3165	996.955555950943	26
2	3169	997.328928028386	27
2	3170	997.974666186317	26
2	3174	998.202897023086	27
2	3175	999.844009260169	26
2	3178	1001.525308819196	25
2	3182	1001.601291367011	26
2	3183	1002.854283062449	25
2	3187	1002.902524557791	26
2	3189	1003.514598828493	27
2	3190	1004.199630143388	26
2	3195	1006.135161218873	25
2	3198	1007.742322592518	24
2	3202	1009.087072942361	25
2	3203	1009.405693443573	24
2	3207	1009.715299376407	25
2	3209	1009.861723733642	26
2	3210	1010.810513081483	25
2	3213	1012.713900156028	24
2	3217	1012.805876112084	25
2	3219	1013.789121045154	26
2	3220	1014.3921636599	25
2	3226	1014.951750759428	26
2	3228	1015.292620822507	27
2	3230	1016.038322377147	28
2	3231	1016.235631294071	27
2	3234	1017.557588657632	26
2	3237	1019.339958884835	25
2	3240	1021.031267300144	24
2	3244	1021.53445677918	25
2	3245	1022.625503099978	24
2	3249	1022.6653019146	25
2	3250	1024.371152334183	24
2	3253	1026.155709505349	23
2	3256	1027.391743621312	22
2	3259	1028.674481052801	21
2	3263	1029.090899114504	22
2	3265	1029.458240680014	23
2	3266	1030.34649125737	22
2	3270	1030.750243633705	23
2	3272	1030.961299561276	24
2	3274	1031.462192136851	25
2	3276	1031.896743343516	26
2	3277	1032.157728602261	25
2	3281	1032.669905796168	26
2	3282	1034.101318981581	25
2	3286	1034.658009116647	26
2	3287	1035.986308422767	25
2	3291	1036.090155852562	26
2	3292	1037.455247651123	25
2	3296	1038.021983293302	26
2	3297	1039.41907053151	25
2	3301	1039.545917310788	26
2	3302	1040.838612593793	25
2	3306	1040.946757185801	26
2	3307	1042.244891744562	25
2	3311	1042.610247888962	26
2	3312	1044.093052883715	25
2	3316	1044.118848130993	26
2	3318	1045.769759077391	27
2	3319	1045.863141392068	26
2	3322	1047.388048799419	25
2	3326	1047.619565649541	26
2	3327	1048.936537868799	25
2	3330	1050.836273631537	24
2	3333	1052.241309730978	23
2	3337	1053.279135759477	24
2	3338	1053.946624139966	23
2	3342	1054.502615169311	24
2	3344	1055.089229466222	25
2	3345	1055.627048661643	24
2	3349	1056.13238888196	25
2	3350	1056.945470741474	24
2	3353	1058.87579601881	23
2	3356	1060.389427270823	22
2	3360	1060.543120989915	23
2	3362	1061.510013552073	24
2	3363	1061.815453742527	23
2	3367	1061.865159775682	24
2	3370	1063.439975162864	23
2	3374	1064.407269715709	24
2	3375	1064.994497800514	23
2	3378	1066.42639146772	22
2	3382	1067.276109416843	23
2	3383	1068.112271875411	22
2	3387	1068.885352224253	23
2	3390	1069.642248065665	22
2	3394	1071.263472134543	23
2	3396	1071.447899999636	24
2	3397	1071.640082705289	23
2	3400	1073.487557502545	22
2	3404	1074.492867893866	23
2	3405	1075.090610553033	22
2	3409	1075.582275745771	23
2	3411	1075.712369987822	24
2	3413	1076.099298246798	25
2	3414	1076.2980319769	24
2	3418	1077.478414454773	25
2	3419	1078.209166354767	24
2	3423	1078.337940232719	25
2	3425	1078.348514895704	26
2	3426	1079.70501376976	25
2	3430	1080.405308538502	26
2	3431	1081.084977182268	25
2	3434	1082.386458309821	24
2	3438	1082.899756621537	25
2	3439	1083.771393170103	24
2	3443	1084.21766872407	25
2	3445	1084.286003372943	26
2	3447	1085.271527200757	27
2	3448	1085.345462529257	26
2	3452	1085.650582002856	27
2	3453	1086.739173499391	26
2	3456	1088.305176254258	25
2	3460	1089.018584290403	26
2	3461	1089.66084143807	25
2	3465	1090.76539972904	26
2	3466	1090.972373872519	25
2	3470	1091.362825686108	26
2	3471	1092.57096953512	25
2	3475	1093.238098092013	26
2	3476	1094.18676609759	25
2	3480	1094.381325359111	26
2	3481	1095.429079451307	25
2	3485	1095.726347374633	26
2	3486	1096.7466751675	25
2	3489	1098.708866058371	24
2	3493	1099.642852290137	25
2	3494	1099.958859759278	24
2	3498	1100.324930769628	25
2	3499	1101.591177689552	24
2	3503	1101.874999050806	25
2	3504	1103.572008086078	24
2	3510	1104.084480571696	25
2	3512	1104.940943344039	26
2	3513	1105.407051426813	25
2	3517	1105.583129967007	26
2	3518	1107.137765530393	25
2	3521	1109.055714173511	24
2	3525	1110.498428727973	25
2	3526	1110.593393727661	24
2	3529	1112.296749200196	23
2	3532	1113.910565588147	22
2	3536	1114.967488521345	23
2	3537	1115.311086046406	22
2	3541	1115.546879992628	23
2	3543	1116.527717884273	24
2	3544	1116.88252965928	23
2	3548	1117.671300116727	24
2	3550	1117.679919771349	25
2	3552	1117.785276333551	26
2	3554	1118.159368955762	27
2	3555	1118.432546272026	26
2	3558	1120.144932793351	25
2	3562	1120.37943640802	26
2	3563	1121.350643560933	25
2	3567	1121.920597332323	26
2	3568	1123.301616148362	25
2	3571	1124.506893028403	24
2	3575	1125.680121124062	25
2	3576	1126.436322513679	24
2	3579	1128.330604617381	23
2	3582	1129.810382000068	22
2	3586	1130.963151068998	23
2	3587	1131.382882430116	22
2	3591	1131.515543830699	23
2	3593	1133.001708161187	24
2	3594	1133.278923178362	23
2	3598	1134.907044699237	24
2	3599	1134.924196910197	23
2	3603	1136.280768845437	24
2	3604	1136.624186362783	23
2	3607	1137.944039912047	22
2	3611	1138.326122588122	23
2	3612	1139.175785973752	22
2	3616	1139.199982517034	23
2	3617	1140.507886213893	22
2	3621	1140.845809344913	23
2	3622	1142.334926068867	22
2	3625	1144.22008742773	21
2	3629	1144.952412448756	22
2	3630	1145.830464948612	21
2	3634	1146.675023972419	22
2	3635	1147.669148373316	21
2	3638	1149.160769222016	20
2	3642	1149.70294203998	21
2	3643	1150.570435043136	20
2	3647	1150.745216298314	21
2	3649	1151.794926657401	22
2	3650	1152.298205668563	21
2	3654	1152.450129501227	22
2	3656	1152.643986682078	23
2	3657	1153.918227911452	22
2	3661	1154.35136017147	23
2	3664	1155.482810055176	22
2	3667	1157.475619320469	21
2	3671	1158.030683998381	22
2	3673	1159.091310672714	23
2	3674	1159.338426501574	22
2	3677	1161.09412641813	21
2	3681	1161.679772892934	22
2	3682	1162.626202030191	21
2	3686	1163.231155218106	22
2	3687	1164.544320284845	21
2	3691	1165.289825394605	22
2	3693	1165.676980559956	23
2	3694	1166.490818011844	22
2	3698	1166.916220571156	23
2	3699	1168.440011277319	22
2	3702	1170.057186601766	21
2	3706	1170.673835376995	22
2	3708	1171.595903869524	23
2	3709	1171.835513284885	22
2	3713	1172.657746337395	23
2	3716	1173.684773099132	22
2	3720	1174.613864940071	23
2	3721	1175.197424518958	22
2	3725	1175.983446457114	23
2	3726	1176.528187148169	22
2	3730	1177.970023968574	23
2	3731	1178.35939525076	22
2	3734	1180.333514493041	21
2	3738	1182.205100558574	22
2	3739	1182.313998766698	21
2	3742	1183.649093857303	20
2	3746	1183.918192770503	21
2	3747	1185.357831469819	20
2	3751	1185.849293069806	21
2	3753	1187.133660166448	22
2	3754	1187.216248522781	21
2	3758	1187.674910445722	22
2	3759	1188.876246623963	21
2	3762	1190.310176637292	20
2	3765	1191.898351820268	19
2	3769	1191.904752311778	20
2	3770	1193.115490304575	19
2	3774	1194.361622876669	20
2	3775	1194.85393233382	19
2	3779	1195.782784845629	20
2	3780	1196.193837625616	19
2	3784	1196.447202124217	20
2	3785	1197.516770112038	19
2	3789	1198.322800320491	20
2	3790	1199.052112888441	19
2	3794	1199.429171402942	20
2	3796	1199.653112208723	21
2	3797	1200.694394015044	20
2	3801	1200.749506614293	21
2	3802	1202.393425038353	20
2	3806	1202.826313706354	21
2	3808	1203.623036704567	22
2	3811	1203.961316131324	21
2	3816	1205.734136784532	20
2	3820	1206.32864996457	21
2	3822	1206.513800752291	22
2	3823	1207.197357070529	21
2	3827	1208.14227292951	22
2	3828	1208.458193717607	21
2	3832	1209.858785368264	22
2	3833	1209.968307310053	21
2	3839	1210.710676646823	22
2	3840	1211.594561688498	21
2	3844	1211.695776699235	22
2	3845	1213.537193367154	21
2	3848	1215.317633785017	20
2	3852	1215.65925195844	21
2	3854	1215.781207610617	22
2	3857	1216.637058853068	21
2	3860	1218.438579841227	20
2	3864	1219.060277166153	21
2	3865	1219.736519639649	20
2	3868	1221.079177547887	19
2	3871	1222.556835222513	18
2	3875	1222.885974262807	19
2	3877	1222.933904550946	20
2	3879	1224.084431458361	21
2	3880	1224.324951091119	20
2	3884	1225.444452773542	21
2	3885	1225.963925369725	20
2	3889	1226.242399331887	21
2	3891	1227.148829897755	22
2	3892	1227.40065030706	21
2	3896	1227.729404845588	22
2	3897	1228.993809943543	21
2	3901	1229.04020346991	22
2	3902	1230.411827023224	21
2	3905	1231.861057732523	20
2	3909	1232.939744600612	21
2	3910	1233.476496636205	20
2	3914	1233.970550025626	21
2	3915	1234.941628436827	20
2	3918	1236.360415410519	19
2	3922	1237.654667979284	20
2	3923	1237.817800534413	19
2	3926	1239.749058418431	18
2	3930	1240.248560877886	19
2	3931	1241.213555737667	18
2	3935	1241.355770659604	19
2	3937	1241.937300258393	20
2	3938	1242.766809217714	19
2	3942	1243.425025384154	20
2	3943	1244.587083311275	19
2	3947	1244.920490940537	20
2	3948	1245.96954114911	19
2	3951	1247.698010241136	18
2	3955	1248.822674775667	19
2	3956	1249.159709149867	18
2	3960	1250.488465307754	19
2	3962	1250.812451099115	20
2	3963	1250.940323715366	19
2	3967	1251.063920837829	20
2	3968	1252.916773570597	19
2	3973	1254.650369938731	18
2	3977	1255.68218816434	19
2	3978	1256.105243846483	18
2	3981	1257.333674584969	17
2	3985	1258.355905977336	18
2	3986	1258.828040054522	17
2	3990	1259.157622837749	18
2	3992	1259.347694362414	19
2	3993	1260.684726105153	18
2	3996	1262.437150616839	17
2	3999	1264.02466274508	16
2	4003	1264.620229549668	17
2	4004	1265.985463261313	16
2	4007	1267.420457315526	15
2	4011	1267.649617026297	16
2	4013	1267.687411687353	17
2	4015	1268.297125083368	18
2	4017	1268.349077519886	19
2	4018	1268.716322823509	18
2	4021	1270.410485363461	17
2	4025	1271.289126045342	18
2	4026	1271.894015174627	17
2	4030	1272.36877660416	18
2	4032	1272.76203385905	19
2	4033	1273.16243918658	18
2	4037	1273.27926133425	19
2	4039	1273.311569849415	20
2	4041	1274.006164189671	21
2	4043	1274.052064587367	22
2	4044	1275.056124719873	21
2	4047	1276.68169609186	20
2	4051	1276.9190754392	21
2	4053	1277.618295161168	22
2	4054	1278.360203429952	21
2	4057	1280.210928819597	20
2	4061	1280.235469894815	21
2	4065	1281.428127923361	22
2	4066	1282.054092308216	21
2	4070	1283.480180022262	22
2	4071	1283.750537290134	21
2	4074	1285.686006070756	20
2	4077	1287.25553502784	19
2	4081	1288.33307690486	20
2	4083	1288.34939428623	21
2	4085	1288.501786612652	22
2	4086	1289.158527055652	21
2	4090	1289.538949043775	22
2	4092	1289.713381527364	23
2	4093	1290.514364392207	22
2	4097	1290.808765082902	23
2	4098	1291.754793535628	22
2	4101	1293.192886610412	21
2	4105	1293.671343505525	22
2	4106	1294.607069352166	21
2	4110	1295.58539417039	22
2	4111	1296.410727013544	21
2	4115	1297.485025661446	22
2	4116	1298.285593324051	21
2	4120	1299.175013938545	22
2	4121	1300.156508010708	21
2	4125	1301.231146138893	22
2	4127	1301.297424902921	23
2	4128	1301.746772089124	22
2	4132	1302.831574873873	23
2	4133	1303.404335963622	22
2	4136	1304.94613849771	21
2	4140	1306.056602249958	22
2	4142	1306.469956158924	23
2	4143	1306.619096811197	22
2	4147	1307.878118416899	23
2	4148	1308.165268231637	22
2	4152	1308.900010518234	23
2	4154	1309.300989855179	24
2	4155	1310.010721970803	23
2	4158	1311.44981946469	22
2	4162	1311.521757513608	23
2	4163	1313.439007464318	22
2	4166	1315.181392524472	21
2	4170	1315.418506196578	22
2	4171	1317.030908520414	21
2	4174	1318.329079504578	20
2	4178	1318.721632312523	21
2	4180	1319.076376960566	22
2	4181	1319.540155907987	21
2	4185	1319.729388273996	22
2	4186	1321.258296488306	21
2	4190	1321.375032920281	22
2	4191	1323.079065342328	21
2	4194	1324.731762333854	20
2	4198	1325.333694569033	21
2	4199	1326.008773414685	20
2	4203	1327.056179206217	21
2	4204	1327.666251513629	20
2	4208	1327.962449381117	21
2	4210	1329.018824802422	22
2	4211	1329.644936535402	21
2	4214	1331.643941550038	20
2	4218	1331.75715503497	21
2	4220	1332.049020749062	22
2	4223	1332.843952247023	21
2	4227	1332.916857347385	22
2	4230	1334.346263504482	21
2	4234	1335.56804943895	22
2	4235	1336.268274098157	21
2	4239	1337.200723092943	22
2	4241	1337.556022143601	23
2	4242	1338.210758463747	22
2	4246	1338.684814009227	23
2	4247	1339.476691009744	22
2	4251	1340.941294754082	23
2	4252	1340.972458913444	22
2	4256	1342.137311627605	23
2	4257	1342.4132008531	22
2	4261	1342.754779663457	23
2	4262	1344.056741688294	22
2	4266	1344.684517031742	23
2	4267	1345.31685472027	22
2	4270	1347.166596027357	21
2	4274	1347.43941323067	22
2	4276	1347.981717707978	23
2	4277	1348.749264753131	22
2	4281	1350.213643339105	23
2	4282	1350.599734002804	22
2	4286	1351.274548740043	23
2	4289	1352.483114114297	22
2	4293	1353.717846005092	23
2	4294	1354.037588412767	22
2	4297	1355.457595357937	21
2	4300	1356.758897792441	20
2	4304	1356.953534164683	21
2	4305	1358.607065975932	20
2	4309	1360.017053931135	21
2	4310	1360.307668166315	20
2	4314	1361.422400299896	21
2	4315	1361.677517713127	20
2	4319	1362.171850440858	21
2	4320	1363.104404270542	20
2	4324	1364.159515723373	21
2	4325	1364.494062569444	20
2	4328	1366.278665732671	19
2	4331	1368.238621860635	18
2	4334	1370.11248318002	17
2	4338	1371.389081916947	18
2	4339	1371.768185198199	17
2	4343	1371.913932263368	18
2	4345	1371.942095137268	19
2	4346	1373.323252543699	18
2	4350	1373.379963104804	19
2	4351	1374.655125049766	18
2	4355	1374.853391926811	19
2	4357	1376.073956563132	20
2	4358	1376.148688625809	19
2	4361	1377.485898433145	18
2	4365	1377.544500679442	19
2	4368	1378.758893953342	18
2	4372	1379.060573489342	19
2	4373	1380.408047928181	18
2	4377	1381.456965250703	19
2	4378	1381.625098709468	18
2	4382	1382.592564083838	19
2	4383	1383.033231229041	18
2	4386	1384.419255052213	17
2	4390	1384.873614745007	18
2	4392	1385.66510243701	19
2	4393	1385.787280911658	18
2	4397	1386.730355629068	19
2	4398	1387.580859505091	18
2	4402	1388.350431026192	19
2	4404	1388.745138368512	20
2	4405	1389.511795715507	19
2	4409	1390.45533652018	20
2	4410	1391.094245681058	19
2	4414	1391.376924194977	20
2	4415	1392.34893204205	19
2	4418	1394.067222239899	18
2	4422	1394.445502887556	19
2	4423	1395.426186541172	18
2	4426	1396.938749228681	17
2	4430	1397.750147527157	18
2	4431	1398.198748371454	17
2	4435	1398.232071037584	18
2	4436	1399.914870622458	17
2	4440	1401.691878234433	18
2	4441	1401.755547437707	17
2	4445	1402.016104700543	18
2	4446	1403.193143923285	17
2	4450	1403.39104648356	18
2	4451	1404.733274978849	17
2	4455	1405.089114302378	18
2	4457	1405.54635637516	19
2	4460	1406.064175341356	18
2	4464	1406.24703541206	19
2	4468	1407.03321308406	20
2	4469	1407.555654511865	19
2	4472	1409.174294881601	18
2	4476	1409.863526961144	19
2	4477	1410.927414701026	18
2	4481	1411.100817733299	19
2	4482	1412.172868209038	18
2	4486	1412.260207248315	19
2	4488	1412.405498024533	20
2	4490	1412.779870953836	21
2	4491	1413.504503745291	20
2	4495	1413.737301696178	21
2	4496	1415.160518096093	20
2	4500	1415.599832743968	21
2	4501	1416.62326948427	20
2	4504	1418.363696320805	19
2	4507	1420.145918638709	18
2	4511	1421.083151959864	19
2	4512	1421.534995165545	18
2	4516	1422.024491921933	19
2	4519	1423.519276456426	18
2	4523	1423.735988734093	19
2	4524	1425.187852447557	18
2	4528	1425.429973493711	19
2	4529	1426.779267667497	18
2	4532	1428.76222487137	17
2	4536	1429.34445902982	18
2	4538	1429.654032454951	19
2	4539	1430.679117393571	18
2	4542	1432.08396100093	17
2	4546	1433.207429889064	18
2	4547	1433.747164282467	17
2	4551	1434.789112486873	18
2	4552	1435.522291068438	17
2	4556	1436.351082109082	18
2	4558	1436.783980926441	19
2	4559	1436.787730331797	18
2	4563	1436.898054267744	19
2	4565	1438.036071375657	20
2	4566	1438.425607185516	19
2	4570	1438.753361442766	20
2	4571	1439.666148896593	19
2	4574	1440.978593866791	18
2	4578	1441.277586970668	19
2	4580	1441.638036222544	20
2	4581	1442.194314497601	19
2	4585	1443.176834886421	20
2	4586	1443.483044056114	19
2	4590	1443.563507090446	20
2	4592	1444.777941268786	21
2	4593	1444.814330589291	20
2	4597	1445.68657404185	21
2	4598	1446.042953926776	20
2	4602	1447.589917353283	21
2	4604	1447.708313204549	22
2	4605	1448.032302889306	21
2	4609	1448.370993565597	22
2	4610	1449.8858445349	21
2	4614	1451.379713757077	22
2	4615	1451.392932877395	21
2	4619	1451.831621810748	22
2	4620	1453.034618860375	21
2	4623	1454.699990904968	20
2	4627	1455.995788909172	21
2	4628	1456.423629919331	20
2	4632	1457.398172839076	21
2	4633	1457.97734019019	20
2	4637	1458.936181907332	21
2	4638	1459.760654280412	20
2	4642	1459.76565551365	21
2	4643	1461.736668238307	20
2	4647	1461.993060593442	21
2	4648	1462.959945726844	20
2	4652	1464.297632496452	21
2	4654	1464.513329359113	22
2	4655	1464.764579913469	21
2	4659	1465.190180954452	22
2	4660	1466.065155748168	21
2	4664	1466.97601554289	22
2	4665	1467.860975653568	21
2	4669	1468.418673729607	22
2	4670	1469.561954082252	21
2	4674	1469.785583410747	22
2	4675	1471.003502786422	21
2	4679	1471.575876896092	22
2	4681	1471.922821886017	23
2	4682	1472.625343754219	22
2	4685	1474.527953397559	21
2	4689	1474.834665914135	22
2	4690	1476.07626922548	21
2	4694	1476.513672366985	22
2	4695	1477.524597031886	21
2	4698	1478.855524948875	20
2	4702	1479.218706886652	21
2	4703	1480.819422150853	20
2	4707	1480.980688556164	21
2	4708	1482.207603318694	20
2	4712	1482.599228903776	21
2	4713	1483.723201783265	20
2	4716	1485.496971963237	19
2	4720	1486.007169702848	20
2	4721	1487.429373779784	19
2	4725	1488.067744350005	20
2	4726	1489.187137423347	19
2	4730	1489.287067667199	20
2	4732	1490.450675335451	21
2	4733	1490.480211265649	20
2	4737	1490.94628583202	21
2	4738	1491.972142783071	20
2	4742	1492.196648520932	21
2	4743	1493.914064689617	20
2	4746	1495.701663583595	19
2	4752	1496.306276187072	20
2	4754	1497.180641893731	21
2	4755	1497.270961437452	20
2	4759	1498.953624887418	21
2	4760	1499.117128410082	20
2	4764	1499.364417358321	21
2	4765	1500.450661422576	20
2	4769	1500.759393236012	21
2	4770	1501.713654659952	20
2	4773	1503.585295874703	19
2	4776	1505.107335724759	18
2	4779	1506.370810462053	17
2	4783	1506.513318848533	18
2	4785	1506.638701588382	19
2	4787	1508.022553435493	20
2	4788	1508.041705352332	19
2	4792	1508.989579610066	20
2	4793	1509.691460615847	19
2	4797	1509.753450445063	20
2	4798	1511.10478553817	19
2	4802	1511.725472443695	20
2	4804	1512.008427286291	21
2	4806	1512.665393774101	22
2	4807	1512.898511434238	21
2	4811	1513.098455333953	22
2	4812	1514.859950957711	21
2	4815	1516.638581564169	20
2	4818	1518.233866438906	19
2	4821	1519.814313255514	18
2	4825	1520.932200848141	19
2	4826	1521.048184263411	18
2	4830	1521.055218247348	19
2	4832	1522.27188088465	20
2	4833	1522.731044034178	19
2	4836	1524.222911559681	18
2	4840	1525.544462215626	19
2	4841	1525.953639979551	18
2	4845	1526.688643508782	19
2	4847	1526.999958325839	20
2	4848	1527.650925041439	19
2	4852	1527.827168076639	20
2	4854	1528.732798969549	21
2	4856	1528.812056595215	22
2	4858	1529.180442238521	23
2	4859	1529.506897366868	22
2	4863	1530.481227144729	23
2	4864	1531.093097082974	22
2	4867	1532.960593266861	21
2	4870	1534.277474238054	20
2	4874	1534.712882011411	21
2	4875	1535.591282985994	20
2	4878	1537.519048815855	19
2	4881	1538.846570204833	18
2	4887	1539.8423065426	19
2	4889	1540.090041881118	20
2	4890	1540.351628743374	19
2	4893	1542.220921630302	18
2	4896	1543.884571128973	17
2	4900	1544.161786088824	18
2	4902	1544.675881522969	19
2	4904	1544.971279764737	20
2	4906	1545.361157514576	21
2	4907	1545.520140606613	20
2	4911	1545.701438249926	21
2	4912	1547.256267481559	20
2	4916	1548.122009433482	21
2	4917	1548.67181205012	20
2	4921	1548.983957870337	21
2	4923	1550.155809094261	22
2	4924	1550.398536027485	21
2	4928	1552.030915620243	22
2	4929	1552.209788259195	21
2	4933	1552.314078321347	22
2	4935	1552.573258917594	23
2	4936	1554.208406651841	22
2	4940	1554.612949524784	23
2	4941	1555.669676227757	22
2	4945	1556.42032013027	23
2	4947	1556.763280470786	24
2	4948	1557.25008927703	23
2	4951	1558.684910395258	22
2	4954	1560.067659114749	21
2	4958	1561.047932915829	22
2	4959	1561.441918354929	21
2	4962	1563.335016238019	20
2	4966	1563.701906548187	21
2	4967	1565.14309101671	20
2	4971	1565.632381628235	21
2	4972	1566.6312277776	20
2	4976	1567.003619036196	21
2	4977	1567.970721735134	20
2	4980	1569.222979139797	19
2	4984	1569.23015804322	20
2	4986	1570.56133631573	21
2	4987	1570.720429187528	20
2	4990	1572.234183405786	19
2	4993	1574.077362591847	18
2	4996	1575.4108736879	17
2	5000	1575.41929271825	18
2	5002	1576.368886158378	19
2	5003	1576.893248298466	18
2	5007	1578.213658267709	19
2	5008	1578.520972712785	18
2	5011	1580.099352470301	17
2	5014	1581.333537479006	16
2	5017	1582.754433058091	15
2	5021	1583.19362189971	16
2	5023	1584.348698074389	17
2	5024	1584.671164120995	16
2	5027	1586.548851430677	15
2	5030	1588.285797841922	14
2	5033	1590.11245654624	13
2	5036	1591.950146123469	12
2	5040	1592.216791156772	13
2	5042	1592.287354815483	14
2	5043	1593.152033217698	13
2	5046	1595.00549016919	12
2	5050	1595.191700004758	13
2	5051	1596.527000765205	12
2	5055	1596.620530436778	13
2	5056	1597.839402851724	12
2	5060	1598.018807183231	13
2	5061	1599.158688603231	12
2	5064	1600.939581272641	11
2	5067	1602.247199438216	10
2	5070	1603.67059547201	9
2	5074	1604.048109325655	10
2	5075	1605.501302783268	9
2	5079	1605.510728637498	10
2	5081	1606.450955414254	11
2	5083	1606.625482941376	12
2	5085	1606.743983053167	13
2	5087	1606.997931693917	14
2	5088	1607.029778183701	13
2	5094	1608.711243417448	14
2	5095	1608.720259598347	13
2	5099	1609.214632133034	14
2	5100	1610.547473818513	13
2	5104	1611.326350588701	14
2	5105	1612.478121828923	13
2	5109	1612.63295160798	14
2	5111	1613.176910984026	15
2	5113	1613.456378158434	16
2	5114	1613.886623752939	15
2	5118	1614.026900556988	16
2	5119	1615.81037878942	15
2	5123	1616.282370322899	16
2	5124	1617.433878542187	15
2	5128	1617.771780620705	16
2	5129	1619.262354412752	15
2	5133	1619.566744126415	16
2	5135	1619.874599276819	17
2	5137	1620.232083256455	18
2	5141	1620.518854554787	19
2	5142	1620.975412653464	18
2	5145	1622.259944740015	17
2	5149	1622.976331221014	18
2	5150	1623.81395922758	17
2	5154	1623.847919241013	18
2	5156	1624.831802410424	19
2	5157	1625.518889034617	18
2	5161	1625.999208886927	19
2	5162	1626.742794053893	18
2	5166	1627.46911360178	19
2	5167	1627.947159041542	18
2	5171	1629.211392428072	19
2	5172	1629.56324419089	18
2	5176	1629.861978681879	19
2	5178	1630.152582532171	20
2	5180	1630.229311628374	21
2	5182	1630.753504539567	22
2	5184	1630.928811443341	23
2	5185	1631.266286766793	22
2	5189	1632.302256629889	23
2	5191	1632.600177877444	24
2	5192	1632.960548871647	23
2	5195	1634.354066680077	22
2	5199	1634.814403361832	23
2	5200	1636.30150573429	22
2	5204	1637.403100860649	23
2	5205	1638.151700062382	22
2	5209	1638.456647820624	23
2	5211	1638.887582173274	24
2	5212	1639.530696475583	23
2	5216	1639.706430893712	24
2	5217	1641.088206795308	23
2	5220	1643.05308547512	22
2	5224	1643.860601103846	23
2	5226	1644.581034060848	24
2	5227	1644.965242908041	23
2	5230	1646.341252189952	22
2	5234	1646.646074801587	23
2	5236	1646.700108929105	24
2	5237	1647.667504045631	23
2	5241	1647.796418836561	24
2	5243	1648.007074722895	25
2	5245	1649.039272399864	26
2	5246	1649.585211261626	25
2	5250	1650.624004244817	26
2	5252	1651.451947109893	27
2	5253	1651.546026307795	26
2	5257	1651.90348352038	27
2	5258	1653.105820315223	26
2	5262	1653.686561012329	27
2	5263	1654.568969475556	26
2	5266	1655.952479538958	25
2	5270	1655.994870830877	26
2	5272	1657.503582811715	27
2	5273	1657.802021424736	26
2	5277	1658.82029360955	27
2	5278	1659.451988504532	26
2	5281	1661.059893050867	25
2	5284	1662.537574218104	24
2	5288	1662.657478640673	25
2	5289	1664.501059079992	24
2	5293	1664.949451131322	25
2	5294	1665.739991537558	24
2	5298	1666.421129378394	25
2	5299	1667.402568022983	24
2	5304	1668.87930792764	23
2	5307	1670.439873393515	22
2	5311	1670.626501115423	23
2	5313	1671.189229324049	24
2	5315	1671.363523286403	25
2	5317	1671.912714915526	26
2	5318	1672.055239945354	25
2	5322	1672.169846310484	26
2	5323	1673.364470659087	25
2	5327	1674.94956223582	26
2	5328	1675.150103815722	25
2	5332	1675.461732220366	26
2	5334	1676.082254210786	27
2	5336	1676.196588094648	28
2	5337	1676.819396629448	27
2	5341	1678.541151948701	28
2	5342	1678.582801624651	27
2	5346	1678.631703199637	28
2	5347	1680.58154903062	27
2	5351	1682.193042688614	28
2	5352	1682.407937640588	27
2	5356	1683.069954251141	28
2	5357	1683.898950342911	27
2	5361	1684.774120307843	28
2	5362	1685.662337490993	27
2	5366	1686.680576457682	28
2	5367	1687.052217357682	27
2	5371	1688.214415928157	28
2	5372	1688.999476873578	27
2	5376	1689.599576794961	28
2	5377	1690.743588568905	27
2	5381	1691.04886922264	28
2	5382	1692.064905057923	27
2	5385	1693.274159859569	26
2	5389	1694.143044043645	27
2	5390	1695.240410770179	26
2	5394	1695.923464909754	27
2	5396	1696.002297770166	28
2	5397	1696.920456363523	27
2	5400	1698.418722758146	26
2	5404	1698.847053348416	27
2	5405	1699.69096240204	26
2	5409	1700.573375669878	27
2	5410	1701.645209310094	26
2	5413	1703.353216730693	25
2	5417	1703.855221303574	26
2	5419	1703.927106967838	27
2	5420	1704.896575092042	26
2	5424	1705.078270486267	27
2	5425	1706.481766825432	26
2	5429	1706.922765737055	27
2	5431	1707.696476259328	28
2	5433	1708.304389352252	29
2	5434	1708.331995079743	28
2	5437	1709.567715857441	27
2	5441	1710.387550764215	28
2	5443	1710.723699138539	29
2	5444	1711.099290326314	28
2	5448	1712.722878813486	29
2	5450	1712.961082788166	30
2	5451	1713.025378522353	29
2	5455	1713.476631305048	30
2	5456	1714.254728748167	29
2	5459	1716.006869710313	28
2	5463	1716.638442634775	29
2	5464	1717.515022090712	28
2	5467	1719.102144931333	27
2	5471	1720.600539571603	28
2	5472	1721.084347626271	27
2	5475	1722.504378924782	26
2	5479	1723.797104008746	27
2	5481	1723.974632314613	28
2	5482	1724.000773103985	27
2	5486	1724.468212861951	28
2	5488	1724.655756863185	29
2	5489	1725.51733687714	28
2	5493	1727.329149272957	29
2	5494	1727.514360725398	28
2	5498	1728.244410297392	29
2	5499	1728.995413188713	28
2	5503	1729.519035161185	29
2	5504	1730.427408629919	28
2	5508	1731.695586244481	29
2	5509	1732.073259438279	28
2	5513	1732.55840152566	29
2	5514	1733.818084263879	28
2	5518	1735.091546372989	29
2	5519	1735.458839154693	28
2	5523	1735.750483462484	29
2	5526	1737.176152784827	28
2	5529	1738.601237045492	27
2	5533	1738.661127500048	28
2	5534	1740.283634961101	27
2	5538	1741.254393574765	28
2	5539	1742.089253606166	27
2	5542	1743.335654382113	26
2	5545	1744.620547341633	25
2	5549	1745.576990764095	26
2	5551	1746.377303398462	27
2	5552	1746.588790142241	26
2	5556	1746.830682855716	27
2	5557	1748.230106868113	26
2	5561	1749.312349778861	27
2	5562	1749.659872523213	26
2	5566	1751.437796879992	27
2	5567	1751.593183096016	26
2	5570	1753.222463614198	25
2	5574	1753.612189566988	26
2	5576	1754.872228180651	27
2	5577	1755.140931549	26
2	5580	1756.365127744789	25
2	5583	1758.018687670941	24
2	5587	1758.127508851992	25
2	5589	1759.398008361762	26
2	5590	1759.581856914314	25
2	5594	1759.58970271477	26
2	5596	1760.812265677035	27
2	5597	1760.854075463752	26
2	5601	1760.917177120551	27
2	5603	1762.59144890075	28
2	5604	1762.70561304901	27
2	5607	1764.597327098886	26
2	5611	1765.151011465917	27
2	5613	1765.702889368481	28
2	5614	1766.419292660693	27
2	5618	1766.458715484285	28
2	5619	1768.207644395979	27
2	5623	1769.708366798389	28
2	5624	1770.176347776392	27
2	5627	1771.379275880271	26
2	5631	1771.671204292668	27
2	5633	1772.326277315505	28
2	5634	1773.184972865397	27
2	5638	1773.507516238079	28
2	5641	1774.647766951548	27
2	5645	1774.877341784393	28
2	5647	1775.346643531659	29
2	5648	1776.590272296483	28
2	5651	1777.937998144964	27
2	5657	1779.132714477291	28
2	5659	1779.495594612311	29
2	5660	1779.577577602567	28
2	5664	1780.003515876558	29
2	5666	1780.102731725274	30
2	5667	1781.180834393838	29
2	5671	1781.393715041557	30
2	5673	1781.407190487777	31
2	5674	1782.827130081394	30
2	5678	1783.20868982482	31
2	5679	1784.056862505787	30
2	5683	1784.753213707704	31
2	5684	1785.63082286723	30
2	5687	1786.849919518345	29
2	5690	1788.120826002286	28
2	5694	1788.293532277239	29
2	5696	1788.469579498896	30
2	5698	1789.273601932705	31
2	5699	1789.966039328353	30
2	5702	1791.911354072282	29
2	5706	1793.094357888102	30
2	5707	1793.518092568481	29
2	5711	1793.698116286002	30
2	5713	1794.485072912343	31
2	5715	1794.955765159757	32
2	5716	1795.471011147724	31
2	5719	1796.925490819552	30
2	5722	1798.464039706887	29
2	5726	1798.698452442932	30
2	5729	1800.217868385167	29
2	5733	1800.616339272072	30
2	5734	1801.557411438302	29
2	5737	1803.504940007144	28
2	5740	1804.933370157966	27
2	5744	1805.485236551657	28
2	5745	1806.402919577697	27
2	5748	1808.005122042151	26
2	5751	1809.864988331945	25
2	5755	1809.974569716775	26
2	5757	1810.317576365713	27
2	5759	1810.919094274796	28
2	5761	1810.934543934463	29
2	5762	1811.19837673314	28
2	5766	1811.823192513219	29
2	5767	1812.437897254229	28
2	5771	1814.393451736549	29
2	5772	1814.414486627914	28
2	5776	1814.927970884685	29
2	5777	1816.315022318885	28
2	5780	1817.528798218146	27
2	5784	1818.39805664148	28
2	5785	1819.168731103912	27
2	5788	1820.650204903707	26
2	5792	1821.540609311022	27
2	5794	1821.844192236475	28
2	5796	1821.908442919812	29
2	5797	1822.366829299815	28
2	5800	1824.093605722561	27
2	5803	1825.883009770773	26
2	5809	1826.872644571235	27
2	5810	1827.09410057038	26
2	5814	1828.246051612561	27
2	5815	1828.410132443792	26
2	5819	1828.557220330615	27
2	5821	1829.097239880704	28
2	5823	1829.820656334609	29
2	5824	1830.363569229542	28
2	5828	1831.146787301353	29
2	5830	1831.761483407604	30
2	5831	1832.108605009949	29
2	5835	1832.918368663368	30
2	5836	1833.642599851897	29
2	5840	1835.013051800813	30
2	5841	1835.23148947384	29
2	5845	1835.237855019913	30
2	5847	1836.511223692252	31
2	5848	1836.970474498046	30
2	5852	1837.353606367627	31
2	5854	1837.732573066185	32
2	5856	1838.45362431627	33
2	5857	1838.592336833363	32
2	5860	1839.901746208665	31
2	5863	1841.706694269625	30
2	5866	1842.947377483805	29
2	5869	1844.216053653208	28
2	5872	1845.57585150141	27
2	5876	1847.116560326474	28
2	5878	1847.228519055815	29
2	5879	1847.573356225041	28
2	5882	1848.956259925549	27
2	5886	1849.546217134474	28
2	5887	1850.610572638062	27
2	5890	1852.020391476785	26
2	5894	1853.067722286521	27
2	5895	1853.970351612454	26
2	5899	1854.435643661698	27
2	5900	1855.364433862341	26
2	5904	1856.624888605092	27
2	5905	1857.257881793266	26
2	5909	1857.405968472443	27
2	5910	1858.736050084865	26
2	5916	1859.360071447618	27
2	5917	1860.51495996218	26
2	5921	1860.668317891198	27
2	5922	1861.806190199478	26
2	5926	1862.252534717189	27
2	5927	1863.474342207311	26
2	5930	1864.727616673222	25
2	5934	1865.120570587131	26
2	5935	1866.358210177792	25
2	5939	1867.359716029746	26
2	5940	1868.26006345365	25
2	5944	1869.056619858907	26
2	5945	1869.779613195619	25
2	5948	1871.047822326867	24
2	5951	1872.448978439232	23
2	5955	1872.694027061514	24
2	5956	1874.410372551044	23
2	5959	1875.617326568326	22
2	5963	1875.957795766863	23
2	5965	1877.043597396836	24
2	5966	1877.610894089637	23
2	5970	1877.7186775016	24
2	5972	1878.402256192495	25
2	5973	1878.862983968926	24
2	5977	1879.649398172695	25
2	5978	1880.216271584926	24
2	5982	1880.87251351751	25
2	5983	1881.74171600349	24
2	5987	1881.925173911227	25
2	5989	1882.6489756336	26
2	5990	1883.649044149814	25
2	5994	1885.047841977447	26
2	5995	1885.120106567515	25
2	5998	1886.595173969192	24
2	6002	1887.796513657694	25
2	6004	1887.832434913815	26
2	6006	1887.933539304675	27
2	6007	1887.966327069213	26
2	6010	1889.213298808297	25
2	6013	1890.678915147183	24
2	6017	1891.559194321638	25
2	6018	1892.327858435994	24
2	6022	1892.564892390078	25
2	6024	1893.372925065458	26
2	6025	1893.559634504726	25
2	6029	1893.967401193167	26
2	6031	1894.271622463061	27
2	6032	1894.965488376913	26
2	6036	1896.441142806549	27
2	6038	1896.474794889213	28
2	6039	1896.825555294452	27
2	6043	1897.582288194687	28
2	6044	1898.549136062598	27
2	6048	1899.459084757565	28
2	6050	1899.695530267565	29
2	6051	1900.373902283868	28
2	6054	1901.676360726243	27
2	6058	1902.964949181393	28
2	6059	1903.15028805442	27
2	6063	1903.715844389245	28
2	6064	1905.130249499416	27
2	6068	1906.344157674283	28
2	6069	1906.484765672384	27
2	6072	1908.423387458434	26
2	6076	1908.758146237144	27
2	6077	1910.365905467121	26
2	6081	1910.924787203242	27
2	6083	1911.106924545003	28
2	6084	1912.329813948346	27
2	6087	1913.877307622021	26
2	6091	1914.850970359519	27
2	6092	1915.45843054883	26
2	6096	1916.278295428601	27
2	6097	1916.918846278338	26
2	6101	1917.050232161055	27
2	6103	1918.109779602473	28
2	6104	1918.20886045683	27
2	6107	1919.964434249586	26
2	6110	1921.542292492165	25
2	6114	1922.325257218997	26
2	6115	1923.377492315396	25
2	6118	1925.00855212219	24
2	6122	1925.417063022018	25
2	6123	1926.718264176398	24
2	6127	1927.378803909962	25
2	6129	1927.49712223929	26
2	6131	1927.855228401624	27
2	6132	1928.716612060442	26
2	6136	1928.901547463938	27
2	6137	1930.330054847598	26
2	6140	1931.535136719868	25
2	6144	1932.749492732924	26
2	6146	1933.133038184489	27
2	6147	1933.289234775939	26
2	6151	1934.412836120515	27
2	6152	1935.222629613318	26
2	6156	1935.656207381139	27
2	6157	1936.98725315284	26
2	6161	1937.901917123987	27
2	6162	1938.600065005273	26
2	6166	1938.986942872417	27
2	6167	1940.36198940713	26
2	6171	1940.514130681749	27
2	6173	1940.84749976318	28
2	6174	1942.113241221086	27
2	6177	1943.454218108096	26
2	6180	1944.731765534618	25
2	6184	1944.820250358723	26
2	6186	1945.70520423732	27
2	6188	1946.196060053855	28
2	6189	1946.701608927437	27
2	6193	1947.785728007124	28
2	6195	1947.90050535951	29
2	6196	1948.053732147143	28
2	6200	1948.620683160391	29
2	6201	1949.893215409928	28
2	6205	1951.156654759256	29
2	6207	1951.222629654839	30
2	6208	1951.348804720194	29
2	6212	1951.679845775785	30
2	6214	1951.977062483974	31
2	6215	1952.646042994485	30
2	6219	1954.311777498378	31
2	6220	1954.636575369612	30
2	6223	1955.89990519181	29
2	6227	1956.612843930314	30
2	6229	1956.998065813446	31
2	6232	1957.66846234955	30
2	6235	1958.988567253837	29
2	6238	1960.517270613538	28
2	6242	1960.733542846162	29
2	6244	1961.111282712417	30
2	6246	1961.341292331803	31
2	6247	1961.71882482812	30
2	6250	1963.714754870238	29
2	6253	1965.281042475702	28
2	6259	1966.89217509632	29
2	6260	1966.992265795061	28
2	6264	1967.202328753386	29
2	6266	1967.5938347802	30
2	6267	1968.503544037865	29
2	6270	1969.841445984395	28
2	6274	1969.924339391397	29
2	6276	1970.363278168914	30
2	6277	1971.368307435216	29
2	6280	1973.08976324171	28
2	6284	1973.897412679317	29
2	6286	1974.153803153809	30
2	6287	1974.497657986248	29
2	6290	1976.123730586918	28
2	6293	1977.680515774043	27
2	6296	1978.94601882741	26
2	6299	1980.246333833301	25
2	6303	1980.690183130237	26
2	6307	1981.292178551136	27
2	6309	1981.534289816713	28
2	6311	1981.66040713236	29
2	6312	1981.816495305562	28
2	6315	1983.481727687718	27
2	6319	1983.878443589932	28
2	6320	1985.102083724627	27
2	6323	1986.973219110893	26
2	6327	1987.929495640689	27
2	6329	1988.764892900896	28
2	6330	1988.822504970694	27
2	6334	1989.401113882698	28
2	6336	1990.08246267648	29
2	6337	1990.774715211691	28
2	6341	1990.839749479098	29
2	6343	1991.075902353433	30
2	6344	1992.127498784179	29
2	6348	1992.589635676447	30
2	6349	1993.590976790788	29
2	6353	1993.851503287785	30
2	6354	1995.393054462301	29
2	6357	1996.608422719019	28
2	6361	1998.248924683285	29
2	6362	1998.262445486041	28
2	6365	1999.886505648384	27
2	6368	2001.596580506751	26
2	6372	2002.725532128576	27
2	6373	2003.137646523194	26
2	6377	2004.082829694896	27
2	6378	2004.439176154771	26
2	6381	2006.339185790979	25
2	6385	2007.251564665216	26
2	6386	2007.931945530959	25
2	6390	2008.452195685441	26
2	6391	2009.461715768725	25
2	6395	2010.728797125015	26
2	6397	2011.012622901252	27
2	6398	2011.154723048285	26
2	6401	2012.489898670167	25
2	6404	2014.433290924393	24
2	6407	2016.416107304655	23
2	6411	2017.122841227199	24
2	6413	2017.20934723024	25
2	6415	2017.932187008915	26
2	6417	2018.321121853096	27
2	6418	2018.353449195325	26
2	6421	2019.747271285839	25
2	6426	2021.744277773685	24
2	6430	2022.74441852321	25
2	6432	2023.407696867748	26
2	6433	2023.694975990503	25
2	6437	2023.753125799807	26
2	6439	2025.26634251381	27
2	6440	2025.592118964045	26
2	6444	2026.630734811534	27
2	6445	2027.126746815703	26
2	6449	2027.282539974921	27
2	6450	2028.742884473204	26
2	6453	2029.960009577758	25
2	6457	2030.807039138502	26
2	6458	2031.755055408067	25
2	6462	2031.805549965805	26
2	6464	2031.821228012935	27
2	6465	2033.405277162119	26
2	6469	2034.102324432596	27
2	6470	2035.349383336379	26
2	6474	2036.747134620087	27
2	6475	2036.884332094229	26
2	6479	2038.255980865447	27
2	6480	2038.276002723425	26
2	6484	2038.576394633167	27
2	6486	2038.621945015664	28
2	6490	2039.360635031684	29
2	6491	2039.9076202818	28
2	6495	2040.605656858758	29
2	6496	2041.806998309008	28
2	6499	2043.106289829387	27
2	6503	2043.200858474342	28
2	6505	2044.679401179461	29
2	6506	2045.064460070504	28
2	6512	2045.413762049451	29
2	6513	2046.829113113394	28
2	6517	2047.404264246473	29
2	6518	2048.651107269784	28
2	6524	2049.646449771633	29
2	6526	2049.991468891328	30
2	6527	2050.401631438432	29
2	6531	2050.835346042188	30
2	6533	2050.969781351333	31
2	6534	2052.3414228373	30
2	6538	2052.650135541969	31
2	6539	2054.010652794575	30
2	6542	2055.686578987052	29
2	6546	2057.293261783944	30
2	6547	2057.388442882036	29
2	6551	2058.199437988089	30
2	6552	2058.72975298248	29
2	6556	2059.435457224405	30
2	6557	2060.10955287691	29
2	6561	2060.326117830988	30
2	6562	2061.951300232185	29
2	6566	2062.306116745312	30
2	6567	2063.673546755759	29
2	6570	2065.124142942091	28
2	6574	2065.199987450507	29
2	6576	2066.332916686201	30
2	6577	2066.479786102546	29
2	6581	2066.843417041954	30
2	6582	2068.085549147127	29
2	6587	2069.788857897071	28
2	6591	2071.151870700753	29
2	6593	2071.510159627527	30
2	6594	2071.565882477237	29
2	6597	2073.556873636579	28
2	6601	2073.594723368884	29
2	6602	2074.995170266067	28
2	6605	2076.21353462979	27
2	6609	2076.242837864657	28
2	6610	2077.585368659606	27
2	6613	2079.257735155409	26
2	6616	2081.257145112825	25
2	6620	2082.522417279134	26
2	6621	2082.839788350162	25
2	6625	2083.800154570406	26
2	6627	2084.065683227757	27
2	6628	2084.303611368199	26
2	6632	2085.241965192773	27
2	6635	2085.821799321172	26
2	6638	2087.022580018153	25
2	6642	2087.790259556506	26
2	6644	2088.636011030846	27
2	6645	2088.898507557137	26
2	6649	2090.172255924658	27
2	6650	2090.531400787531	26
2	6654	2090.566594200009	27
2	6655	2091.922762325107	26
2	6659	2092.461221001432	27
2	6661	2093.564015603587	28
2	6662	2093.70426967766	27
2	6666	2095.068434540797	28
2	6667	2095.574776993393	27
2	6671	2095.694567041135	28
2	6673	2097.092503971865	29
2	6674	2097.438580691702	28
2	6678	2098.620575625259	29
2	6679	2099.384872301556	28
2	6683	2099.540298538903	29
2	6685	2099.894864638021	30
2	6686	2100.98663465891	29
2	6690	2101.464279712304	30
2	6691	2102.71175469242	29
2	6694	2104.5113981691	28
2	6698	2104.870070613076	29
2	6700	2105.113876174611	30
2	6701	2105.969391571246	29
2	6705	2106.311762743578	30
2	6706	2107.724887745343	29
2	6710	2108.343282996665	30
2	6712	2108.449946848476	31
2	6713	2109.19151593361	30
2	6717	2109.310128533699	31
2	6719	2110.064212017128	32
2	6720	2110.650949524603	31
2	6724	2110.700858984535	32
2	6725	2111.98136926636	31
2	6729	2113.202744203368	32
2	6730	2113.527938682473	31
2	6734	2114.184535683844	32
2	6735	2115.071099012232	31
2	6739	2115.874789424606	32
2	6740	2116.832457964009	31
2	6743	2118.128826118706	30
2	6747	2119.5260094526	31
2	6748	2120.056801322175	30
2	6751	2121.339412568023	29
2	6755	2121.954842460461	30
2	6756	2123.080220698079	29
2	6760	2123.548065764146	30
2	6761	2124.500056059731	29
2	6765	2125.440831250533	30
2	6766	2126.142482667861	29
2	6770	2126.736911603563	30
2	6771	2127.754937944261	29
2	6775	2128.554392817157	30
2	6777	2128.650496727898	31
2	6778	2129.474832262544	30
2	6782	2129.984523101746	31
2	6783	2131.104518392196	30
2	6787	2131.293808293979	31
2	6788	2132.843675894922	30
2	6792	2132.962298251108	31
2	6794	2133.940369216326	32
2	6795	2134.084152121356	31
2	6799	2134.518869264293	32
2	6800	2136.023678720443	31
2	6805	2137.502940863444	30
2	6809	2138.21090503827	31
2	6811	2138.451529706166	32
2	6812	2139.380893520898	31
2	6816	2139.68793143813	32
2	6817	2141.332455509229	31
2	6821	2141.566587782733	32
2	6822	2142.706417319624	31
2	6825	2144.080466044953	30
2	6829	2145.49663449249	31
2	6830	2146.010024628488	30
2	6835	2147.810569361297	29
2	6838	2149.563674763476	28
2	6842	2149.864565069454	29
2	6844	2150.762489304198	30
2	6845	2150.962539848757	29
2	6849	2151.127329805027	30
2	6851	2151.737697909644	31
2	6852	2152.873008416106	30
2	6856	2154.091357647897	31
2	6857	2154.604964898598	30
2	6861	2155.946491148244	31
2	6862	2156.216912991811	30
2	6866	2157.142857255829	31
2	6867	2157.938085630235	30
2	6871	2158.057156581861	31
2	6872	2159.788702076559	30
2	6875	2161.190790658888	29
2	6879	2162.465049311491	30
2	6880	2163.008116632399	29
2	6883	2164.230252074894	28
2	6887	2164.956454265725	29
2	6889	2165.229779321435	30
2	6890	2165.816663322855	29
2	6893	2167.314894003492	28
2	6897	2168.696000581325	29
2	6898	2168.951995881718	28
2	6902	2169.179471069437	29
2	6903	2170.322819229659	28
2	6907	2170.367761916568	29
2	6909	2171.075518595558	30
2	6910	2172.305779195089	29
2	6914	2172.840989519573	30
2	6915	2173.94624288052	29
2	6918	2175.701019655426	28
2	6922	2176.218953291046	29
2	6924	2177.047294656886	30
2	6925	2177.136877159846	29
2	6928	2178.875970207413	28
2	6932	2179.365536071048	29
2	6936	2180.147215912435	30
2	6937	2180.511003686001	29
2	6941	2180.969937186459	30
2	6942	2182.461656472904	29
2	6946	2182.490268967682	30
2	6948	2182.588018723586	31
2	6949	2184.24373692244	30
2	6953	2185.452819521615	31
2	6954	2185.616263352779	30
2	6958	2185.696270396178	31
2	6959	2186.956526152303	30
2	6963	2187.592659671527	31
2	6964	2188.75934830725	30
2	6968	2189.682507736095	31
2	6969	2190.204093183277	30
2	6973	2190.469139607458	31
2	6975	2191.390645165644	32
2	6977	2191.690569044231	33
2	6978	2192.143218446595	32
2	6982	2192.42070627928	33
2	6984	2193.162362844945	34
2	6985	2194.071442350072	33
2	6989	2194.42244402676	34
2	6990	2195.850058589575	33
2	6994	2196.960027961705	34
2	6995	2197.715286924576	33
2	6999	2198.71715098721	34
2	7000	2199.02835320316	33
2	7005	2200.970177090054	32
2	7009	2201.054106455072	33
2	7011	2202.434792993639	34
2	7012	2202.864036622343	33
2	7016	2203.553240155293	34
2	7019	2204.804166012516	33
2	7023	2205.265988772879	34
2	7025	2206.286721195346	35
2	7026	2206.802867550475	34
2	7030	2207.177208303707	35
2	7032	2207.187094734854	36
2	7033	2208.389375637358	35
2	7037	2209.370524031429	36
2	7038	2209.802338785937	35
2	7042	2209.950641508584	36
2	7043	2211.050276303736	35
2	7047	2211.915116752002	36
2	7048	2212.575445627493	35
2	7052	2213.270248997113	36
2	7053	2214.039496184957	35
2	7057	2215.138793517122	36
2	7058	2215.811899669912	35
2	7062	2216.529104996071	36
2	7063	2217.718351341483	35
2	7066	2219.647698023242	34
2	7070	2221.209923174524	35
2	7071	2221.473843780418	34
2	7075	2222.559307673108	35
2	7076	2223.023480009173	34
2	7080	2223.381520346354	35
2	7082	2223.582999539898	36
2	7084	2223.878201808404	37
2	7086	2224.293437334256	38
2	7087	2224.988437229839	37
2	7091	2225.007154306428	38
2	7092	2226.897805940618	37
2	7096	2227.412782258803	38
2	7097	2228.585634910201	37
2	7100	2229.938946751577	36
2	7103	2231.360012010184	35
2	7107	2231.377884944706	36
2	7108	2233.023166606088	35
2	7112	2234.087974340771	36
2	7113	2234.252382133228	35
2	7117	2234.758832513592	36
2	7119	2235.301375406405	37
2	7120	2235.81907343704	36
2	7124	2236.313515822069	37
2	7125	2237.329578861852	36
2	7129	2237.47579571638	37
2	7131	2237.652102340441	38
2	7133	2238.735245317572	39
2	7134	2239.235730681267	38
2	7138	2240.539450451803	39
2	7139	2240.867673373293	38
2	7143	2241.768627170957	39
2	7144	2242.157215680811	38
2	7148	2243.125614770657	39
2	7150	2243.638830673065	40
2	7151	2243.81629252981	39
2	7155	2244.382716095781	40
2	7156	2245.263386061486	39
2	7160	2245.819838422406	40
2	7161	2247.051915541176	39
2	7164	2248.946304168623	38
2	7168	2249.169943158797	39
2	7170	2249.717993579074	40
2	7171	2250.314855638404	39
2	7174	2251.89656830195	38
2	7177	2253.60302670959	37
2	7181	2253.825121198912	38
2	7182	2254.914783367958	37
2	7186	2255.177033461392	38
2	7188	2256.236854989224	39
2	7189	2256.902536216822	38
2	7193	2257.978533878974	39
2	7194	2258.841523061391	38
2	7198	2258.960689427767	39
2	7199	2260.064056328382	38
2	7202	2261.631351837027	37
2	7206	2261.766223211671	38
2	7208	2262.022462791376	39
2	7210	2262.814970617139	40
2	7211	2263.073876361991	39
2	7215	2263.794943279057	40
2	7216	2264.570758167165	39
2	7219	2265.810659480537	38
2	7223	2266.526982100037	39
2	7224	2267.145989896613	38
2	7228	2268.224852027258	39
2	7229	2268.802514080028	38
2	7232	2270.675874978933	37
2	7236	2270.770451503524	38
2	7238	2270.92749713575	39
2	7240	2271.463071000215	40
2	7241	2272.187999102916	39
2	7246	2273.770909287851	38
2	7250	2274.442391685192	39
2	7251	2275.426025980036	38
2	7255	2275.429664588406	39
2	7258	2277.046780758421	38
2	7262	2277.24894461691	39
2	7264	2278.39100486847	40
2	7265	2278.794614373404	39
2	7268	2280.236811704818	38
2	7272	2281.23292549198	39
2	7273	2281.448470599461	38
2	7277	2282.67957709031	39
2	7278	2282.758779240843	38
2	7282	2283.886135300196	39
2	7283	2284.351924547996	38
2	7286	2285.561150325533	37
2	7290	2286.101643254688	38
2	7291	2286.797479089979	37
2	7295	2287.766989726146	38
2	7296	2288.352504043911	37
2	7300	2288.778393624716	38
2	7302	2289.604318983358	39
2	7303	2290.293821655471	38
2	7307	2290.781786452403	39
2	7308	2292.17325690582	38
2	7312	2292.29397466502	39
2	7313	2293.764276222583	38
2	7317	2293.821965596506	39
2	7318	2295.075414713357	38
2	7322	2295.35501114458	39
2	7323	2296.629446120445	38
2	7327	2296.781676624155	39
2	7329	2297.2625053684	40
2	7330	2297.834003765021	39
2	7334	2298.038357025731	40
2	7335	2299.335968067196	39
2	7339	2299.971807750462	40
2	7340	2300.807968119603	39
2	7344	2300.877720675948	40
2	7345	2302.401558649052	39
2	7349	2303.063641565695	40
2	7350	2304.275667182054	39
2	7353	2305.762691625464	38
2	7356	2307.234336854774	37
2	7359	2308.68797882821	36
2	7363	2309.490870974645	37
2	7364	2310.041817999515	36
2	7367	2312.019139659847	35
2	7371	2313.236954631158	36
2	7373	2313.728052753385	37
2	7375	2313.739399362113	38
2	7377	2313.842179974308	39
2	7378	2313.868104929547	38
2	7381	2315.296014591749	37
2	7384	2316.571679364587	36
2	7387	2318.032059717807	35
2	7390	2319.628259101766	34
2	7394	2319.675965182561	35
2	7395	2320.966036802786	34
2	7399	2321.624682121495	35
2	7401	2322.162946754894	36
2	7403	2322.340646212876	37
2	7404	2322.409110962855	36
2	7408	2323.665300358817	37
2	7409	2324.153492339583	36
2	7413	2324.766077254203	37
2	7415	2325.156040637821	38
2	7416	2325.459613046864	37
2	7420	2325.840090024829	38
2	7422	2326.614083771428	39
2	7424	2326.693478556168	40
2	7425	2327.45196454178	39
2	7429	2327.565329678471	40
2	7431	2327.991624276203	41
2	7433	2328.393430772278	42
2	7434	2328.716903420421	41
2	7438	2329.946206215318	42
2	7439	2330.12838813297	41
2	7443	2330.128733505331	42
[...]
5	84334	26227.015627652485	1954.5670138347
5	84347	26232.252072832066	541.02641179468
5	84352	26234.064888576496	1954.1506034325
5	84355	26235.350746302571	6511.9555643421
5	84358	26236.816516551453	542.1724928717
5	84393	26249.469679151367	1495.0686622162
5	84429	26259.915976997355	2865.4518827109
5	84437	26263.335106584879	1962.6433443365
5	84450	26267.663240061777	548.30857166667
5	84460	26270.286556264835	1495.1378531809
5	84470	26273.523750802206	1497.4398692776
5	84481	26278.864874404746	1501.4031012571
5	84493	26282.150274790715	1028.2409014778
5	84514	26287.282310691553	1506.9309691945
5	84537	26295.431594518276	551.26312898716
5	84549	26298.074758197071	1030.6787909782
5	84566	26303.120364272485	552.98164744654
5	84613	26317.994048644306	1968.3587081409
5	84647	26328.688380987834	1517.667675384
5	84657	26331.919395384271	552.72442185763
5	84778	26369.076386972597	2000.8899358969
5	84831	26382.995645194022	1995.8832731862
5	84849	26389.367535931138	1060.79422173
5	84886	26399.848886912768	567.72711440894
5	84897	26404.402217887607	568.60256210229
5	84929	26416.435665967953	2002.6207226802
5	84983	26432.668618551721	2902.0323702992
5	85017	26444.285597449434	568.54688436017
5	85026	26445.714398935889	1551.3196391193
5	85053	26451.41571424835	11326.910545397
5	85058	26453.141250202512	4239.5010126849
5	85071	26457.46702401795	2467.706165425
5	85089	26463.882024287698	2463.7814739979
5	85102	26468.893440775839	1068.3538285585
5	85132	26478.460511028287	5456.8279986199
5	85150	26484.59188553494	1070.1628195311
5	85179	26493.32841099192	6934.4371876636
5	85212	26504.342248265897	3825.7488031111
5	85217	26506.085370267821	3822.3268712956
5	85239	26512.816149820282	2020.770327349
5	85244	26514.792439995973	1077.2879678707
5	85263	26518.642401129461	3828.7870100363
5	85279	26524.819066732272	1083.3403502696
5	85311	26534.44219711636	2037.6201912321
5	85333	26540.510330253549	575.13656196142
5	85341	26544.135268822208	575.68886037671
5	85347	26547.169094511017	576.12002792392
5	85371	26554.038017907074	1567.1699301628
5	85374	26555.240965298085	2505.9238506603
5	85419	26570.056310193322	2509.4181623301
5	85448	26577.543697766854	574.81355355999
5	85473	26585.544328090442	1575.6578650492
5	85483	26588.577545254385	568.11546811186
5	85493	26592.012334508156	2514.5575177524
5	85502	26597.185965375867	567.08412343796
5	85510	26600.015309936631	1572.4097932579
5	85527	26604.894867891524	1091.7190732068
5	85532	26606.635749995787	1572.4855146303
5	85590	26623.325508944396	1581.536565623
5	85603	26627.480008438681	562.08228515136
5	85635	26636.19661628854	1093.0502457911
5	85640	26637.825785921966	1092.8214665538
5	85653	26641.70585595489	1090.5966217363
5	85680	26650.039795455229	1091.5311601716
5	85715	26660.709492739928	1095.9839489448
5	85730	26665.452283620169	2047.7653484391
5	85733	26667.258947495078	5906.3966541542
5	85749	26673.818026858461	2050.0843962559
5	85782	26684.488494031396	1580.8755396014
5	85809	26691.942704054419	570.82238787701
5	85841	26701.638742045577	4313.2506489783
5	85849	26705.396018598492	2525.8325667351
5	85852	26706.68130277999	2067.4951833078
5	85880	26717.204544785883	574.87465955057
5	85886	26720.424898954931	2523.5440088482
5	85909	26729.427981753726	3426.0594553029
5	85919	26732.665198836555	574.81477487847
5	85961	26745.021046713446	5937.9129006118
5	86043	26767.418891867515	1598.5472900961
5	86097	26783.570858188424	1601.1743193071
5	86104	26784.806575270448	1112.3032834701
5	86109	26786.454392358739	3421.3433620941
5	86174	26807.080189023803	1104.750278716
5	86210	26816.696911852512	1103.6967610617
5	86213	26818.111600089151	2061.6295328393
5	86246	26829.136624941307	1600.3976372904
5	86265	26833.880755977596	3891.7126940386
5	86270	26835.699341169449	565.46951289882
5	86280	26838.450913846197	561.54148336972
5	86283	26839.651856982412	4346.3632286754
5	86294	26844.226465411188	1114.1597271376
5	86299	26845.449444712216	1110.7611306503
5	86317	26851.937683942431	2996.6819910318
5	86374	26869.743612028549	2998.1288897595
5	86379	26871.355253953564	5946.2332404253
5	86387	26874.671169941391	563.14835936841
5	86524	26911.746597107392	2548.3055891264
5	86552	26922.047526436377	1127.5317498967
5	86591	26932.969482877928	569.56828886858
5	86605	26939.063378083784	1133.2539207685
5	86639	26947.862079082134	1136.1790872636
5	86676	26958.599561018387	1138.8835739115
5	86727	26975.145511699917	1142.0014096608
5	86736	26976.644629927429	1635.9782665793
5	86743	26978.626587159077	4374.3974302108
5	86750	26980.573978625873	1141.0089876816
5	86773	26988.085719047004	565.04563235744
5	86783	26991.400071467163	4811.4836571486
5	86791	26994.38823928822	1145.2441647756
5	86859	27012.982790134549	1145.4140591626
5	86869	27015.627725795917	1641.5020745396
5	86874	27017.436354453936	3047.835490205
5	86903	27025.852063579931	3039.410367922
5	86906	27027.386190579346	2579.1257605293
5	86912	27030.448914130105	3490.7130223636
5	86944	27039.423995290584	3033.256246739
5	86952	27042.690307329855	3491.5633027822
5	86966	27045.889410049355	2112.8066538799
5	86974	27049.491296709402	3035.8852346214
5	86992	27056.10627176415	5230.8315338689
5	87022	27065.810633899531	3501.8637407541
5	87054	27075.21919784516	1654.2376491403
5	87135	27098.750698277243	1656.5031521692
5	87140	27100.420019278564	1139.8280217771
5	87143	27102.258056725823	2129.4205386693
5	87151	27105.267988024727	4408.2770307003
5	87154	27106.960030678735	2125.8404421273
5	87162	27110.344921361916	2127.4778990782
5	87276	27146.471412390732	1655.5666454875
5	87309	27153.485471617132	552.51347605163
5	87337	27163.558850139268	1644.6809701307
5	87347	27166.519176527933	553.80365541173
5	87382	27178.006455453189	5282.8566425084
5	87401	27183.076987165103	4853.2713417455
5	87414	27187.998326791527	3969.5896988355
5	87429	27193.062038736309	1122.6649655197
5	87483	27211.841754840392	556.79638935794
5	87528	27224.016131686684	1119.5767201059
5	87536	27227.127947954353	1652.4312898017
5	87568	27236.729896890079	3077.2423712578
5	87610	27247.906338671487	3526.7215835313
5	87613	27249.370529399518	5699.4545934916
5	87619	27252.530004549291	1652.5285436911
5	87646	27260.321232135858	4418.221811018
5	87696	27276.007188268271	3071.5341508548
5	87715	27281.200798972961	541.25001965687
5	87772	27302.493936187666	1122.6378682547
5	87792	27308.793165010479	1125.8179150942
5	87807	27313.178576818001	4883.2842121536
5	87848	27324.609429283704	545.90856179856
5	87862	27331.147334420759	3083.8578142839
5	87880	27337.442087934804	1127.0209058432
5	87885	27338.836226236154	2150.1493014331
5	87890	27340.105366850164	547.19712366858
5	87919	27351.523736796047	1125.729897104
5	87924	27352.791657925661	5325.3514305344
5	87932	27355.950228940028	3977.4660364034
5	87948	27361.575355078358	550.84231872096
5	87981	27372.118292615641	1117.190479668
5	88001	27378.147564528961	1119.8295949671
5	88031	27387.241811191182	1115.2854565353
5	88034	27388.521442822445	1107.6673461322
5	88062	27395.003122606207	1108.6958953256
5	88075	27400.026162814427	546.21025447234
5	88102	27408.500827403258	1110.7723669629
5	88170	27427.593465429249	3982.3129740885
5	88178	27430.256275972056	6493.4737507698
5	88225	27443.456713163743	1669.7227291603
5	88262	27455.039873902761	4453.1879406451
5	88277	27459.540346360095	1121.4791147892
5	88300	27470.045194121898	1685.8554857339
5	88344	27482.988277753704	2662.4312994513
5	88358	27486.455841300898	2663.9849800537
5	88380	27492.868060681858	1130.1192925275
5	88451	27514.516701540985	3597.7850725171
5	88476	27522.778912083693	2195.7345681384
5	88488	27525.897971838415	4938.5719358709
5	88518	27538.096065732725	1140.0104642699
5	88597	27559.160864352137	1710.3373494118
5	88666	27580.361798559017	3612.1642929111
5	88676	27584.128386094123	567.02210504195
5	88712	27596.943091405071	3604.6609524172
5	88749	27609.483838316127	4509.684108707
5	88790	27625.174814980737	1706.174150105
5	88797	27626.838836966342	4517.0283066401
5	88812	27631.123479555062	2213.620730796
5	88835	27641.832668492831	564.49908999153
5	88844	27643.291411219611	2212.5806907645
5	88866	27650.093903656749	566.17707853823
5	88905	27664.715980274675	1132.8051770717
5	88959	27680.600487887931	2206.6944066193
5	88962	27682.022407241424	562.93499918245
5	88976	27684.980660141704	563.92061893316
5	88988	27688.430675241796	2693.6413867757
5	89024	27699.004723042135	559.58800388294
5	89039	27703.736226686535	2219.3157494425
5	89062	27711.767318695297	3180.3243798461
5	89065	27713.314679895414	564.66726062554
5	89071	27716.55205673117	2221.4411132741
5	89088	27721.376963158956	3174.8170329269
5	89142	27739.358925519958	9593.8802648903
5	89168	27748.962191713862	1123.5984148309
5	89192	27756.329321335516	1687.6336956713
5	89195	27757.575976211838	1123.474129975
5	89198	27758.935050393901	3648.749244613
5	89236	27767.916982021628	4083.3500248714
5	89241	27769.461663167065	1686.7004128707
5	89279	27782.86000444859	2222.893461656
5	89296	27787.233184157756	3639.0050188518
5	89340	27800.007298750688	563.87360448692
5	89376	27809.470951930505	3182.1712687771
5	89394	27815.033193431494	1682.9084616001
5	89400	27817.965886199732	2212.762856477
5	89469	27835.096936903221	1102.0839689334
5	89477	27837.843521158469	1103.4928786276
5	89517	27849.463345753659	3178.7637183595
5	89588	27870.080692220739	4536.6703568366
5	89612	27876.226064904667	6277.9190205236
5	89622	27879.453885643258	4089.7364980559
5	89625	27880.981076347902	5875.0654242323
5	89654	27889.411217134519	3645.687947358
5	89664	27892.443250852338	4536.2233245134
5	89685	27900.713033791706	547.99269977302
5	89741	27916.586359615698	2695.1108897587
5	89746	27917.94215759661	1104.8424317245
5	89761	27922.467124629095	1674.3156797464
5	89770	27923.936950470954	2214.5993542409
5	89791	27931.944071661942	2216.2991194407
5	89828	27942.890362753421	2213.4311056432
5	89841	27948.270136818924	1095.7859286848
5	89860	27953.50744970765	1661.2659587015
5	89969	27986.269585328252	4102.4247585398
5	90007	27998.835328464286	554.04957063659
5	90035	28005.445630894304	1104.3321008974
5	90072	28017.653160242811	2235.1859759249
5	90110	28030.958442671859	1686.8995314745
5	90115	28032.432889680826	1118.4422669694
5	90183	28052.100918529257	2746.0907913103
5	90232	28066.312842534183	5494.5884851955
5	90343	28103.40476320114	1123.0857843427
5	90360	28107.82526317209	2764.2208148141
5	90363	28109.209960294776	2765.3914176237
5	90401	28118.971051533222	1124.1581310887
5	90461	28134.660947925114	559.34611259081
5	90492	28145.984772180469	1127.1415026341
5	90539	28160.531321479083	1126.875497927
5	90656	28195.415520626941	1688.4222040099
5	90675	28199.655311343336	5510.5686546939
5	90690	28203.72293407459	2250.9724132786
5	90695	28205.151123431774	1681.2919004467
5	90698	28206.942519130821	3713.3674932294
5	90703	28208.23017165594	544.1674085692
5	90729	28217.748326176108	1119.5575528069
5	90761	28228.05989250418	1114.2829427465
5	90777	28234.014953234123	5961.2939507472
5	90787	28237.085223957786	549.08741779438
5	90822	28249.509214412311	1678.9319516191
5	90827	28250.845637937711	552.126378347
5	90853	28256.920436030702	1683.6630905855
5	90948	28285.248355748021	1107.9171033313
5	90961	28289.285952342563	2236.4363270722
5	90985	28295.928239503205	2759.3360260961
5	91014	28304.700811277404	3715.6813552071
5	91107	28332.441001099049	542.33084955408
5	91120	28336.953292386493	3712.6964706463
5	91129	28338.704328900649	2229.6153885919
5	91139	28342.12993364267	2231.362447763
5	91147	28345.377673780993	2230.7522865631
5	91170	28352.746334076934	2770.501112527
5	91195	28360.794667716213	2770.6171233916
5	91204	28365.887073598504	2224.1285926217
5	91257	28379.758882525824	548.73646987358
5	91275	28385.966598319523	551.20706899902
5	91314	28397.196039351524	3730.3423781571
5	91332	28403.23929111928	2773.6884643152
5	91335	28405.13030066144	8337.4071944264
5	91346	28409.79752103694	547.27764244886
5	91349	28411.075949466491	1114.854529555
5	91359	28414.081094775425	1662.6725779747
5	91371	28417.57673298184	550.54601126076
5	91460	28443.856412173325	1667.4017227269
5	91463	28445.14696742397	2784.8004867428
5	91478	28450.712884531432	3750.5588162086
5	91486	28454.269823132717	1669.9725992839
5	91498	28457.132161472441	2780.937334319
5	91501	28459.006945927331	2779.384548369
5	91516	28463.842692631559	1664.4383298934
5	91549	28474.679658871966	561.28493667639
5	91556	28476.070209689515	3726.810261872
5	91566	28478.884963419365	561.88121710467
5	91574	28481.996283273662	561.20463077558
5	91633	28499.88751331743	1110.6801953143
5	91639	28502.806281929353	562.61022037859
5	91644	28504.645967364015	563.57193902632
5	91667	28512.713469698729	1110.6693208681
5	91702	28523.823109712343	2784.9215688295
5	91742	28536.127727424803	561.47978080659
5	91745	28538.05686547559	4672.6754011293
5	91750	28540.026831003355	4672.0799712115
5	91766	28546.400097063075	563.34969991043
5	91773	28547.966368686485	2234.8770270281
5	91778	28549.210749239552	1124.3021785547
5	91784	28551.838342378366	1672.2503549191
5	91844	28571.921163638013	2798.659448772
5	91862	28577.912536774093	5582.1429440729
5	91874	28581.154413119779	1677.2248301084
5	91992	28612.538986588717	4709.3456140726
5	92024	28622.194060648308	1128.8839827416
5	92051	28630.2989415963	3805.096564482
5	92109	28648.310165226161	6066.6337625131
5	92127	28655.597304864116	1132.9100143235
5	92130	28656.908598072343	567.54417697088
5	92137	28658.175685916171	6073.0910789756
5	92151	28661.858269710914	1137.2753843129
5	92157	28665.019721780606	9192.4404576353
5	92277	28704.128571367525	2853.9538625576
5	92280	28705.772932662704	4288.0508740627
5	92302	28712.587894190923	3834.5982122665
5	92335	28724.049317286797	1708.5344923978
5	92377	28736.765030444488	3354.1498414196
5	92383	28739.449808511027	5644.6172173419
5	92388	28740.950443429948	577.88108862365
5	92396	28743.944482704141	7722.6522086398
5	92406	28747.337037559488	1708.1326247512
5	92412	28750.52577262398	2274.9490767625
5	92443	28758.824714636692	583.41768837434
5	92476	28770.274480816054	584.62062261329
5	92567	28797.281959909838	3827.3330115693
5	92610	28811.674499026205	1127.1598562699
5	92750	28855.507664578858	5229.8122652888
5	92772	28861.839805254977	2247.3380990273
5	92862	28888.255869287145	2247.1047900596
5	92870	28890.957538107862	2811.2766984476
5	92887	28895.751004527961	2809.6996945044
5	92911	28902.726233272892	577.04536409813
5	92919	28906.167280705166	3834.3122329492
5	92927	28909.09117149551	3348.9056321072
5	92939	28911.73801128388	6109.3077704956
5	92945	28915.365927997684	1691.2111790689
5	92956	28920.550577526619	585.44637580701
5	93049	28948.359847295737	4779.6677698087
5	93111	28966.405019479884	583.16545982605
5	93114	28967.762207720323	3830.9422160225
5	93228	28999.974245030326	1130.2598750835
5	93262	29008.778884572803	2248.9193502842
5	93279	29014.355766787462	2249.3016813191
5	93299	29020.805070808984	1138.0360274305
5	93310	29026.179352499812	577.48519878824
5	93315	29027.896851341135	1138.8913182917
5	93323	29031.497986624471	576.07949996579
5	93338	29035.918972582638	573.90530903291
5	93419	29062.442762259661	2804.9746910607
5	93450	29069.904593051679	5222.5301043586
5	93453	29071.431157887063	2236.2886405046
5	93491	29081.235569461703	2794.6857316842
5	93517	29087.288126146689	1679.5557728918
5	93528	29091.583796426923	5671.6464302582
5	93550	29097.509013927811	4309.9125926847
5	93571	29105.166493408652	7419.6771469943
5	93593	29112.128962432677	558.17866335855
5	93622	29120.48220522114	2234.6785415314
5	93636	29123.866188711756	2234.880812138
5	93690	29143.463366175527	3852.9892708808
5	93700	29146.558781895312	1131.6562512025
5	93734	29155.767825880732	1128.5198613476
5	93742	29159.05847053257	2818.1857132945
5	93754	29162.204507062111	2253.0623966464
5	93794	29175.326246306013	4811.2294673123
5	93800	29178.324757726018	3881.6227010331
5	93822	29184.722162990731	565.89828130701
5	93828	29187.223909373109	1136.4286581412
5	93836	29190.32375826658	1138.2854945974
5	93851	29194.897910695237	3391.3578006918
5	93876	29202.482478107785	2831.4483643437
5	93916	29215.194817635691	7483.2445781177
5	93957	29228.721386628313	3407.2864694546
5	93962	29229.924175939051	2260.4682593795
5	94003	29240.690852487546	1131.1131941118
5	94037	29253.877978765863	2264.8571429146
5	94084	29265.065698985281	1708.2656248511
5	94100	29271.881610225784	2269.6686249955
5	94114	29275.750254701162	3421.555837838
5	94156	29288.281907311537	4856.511742621
5	94176	29293.480480441907	4857.0053692439
5	94216	29306.269308608296	1133.2471752604
5	94262	29318.411695990797	5763.9672746673
5	94268	29321.953239148568	2267.696773772
5	94283	29327.305800328116	2265.2976113569
5	94296	29331.489580464634	552.14111767825
5	94329	29341.138324978846	3408.2415714645
5	94337	29344.327357447977	3398.7432951116
5	94393	29360.25208098543	3910.9856414561
5	94413	29366.532295650329	3384.8133696058
5	94419	29370.206171279114	2806.0718027709
5	94435	29376.291796283883	3895.9194122398
5	94450	29381.564876746101	5777.8156074188
5	94460	29384.592123939371	2811.9950265531
5	94465	29386.54005986852	1683.2552221596
5	94503	29397.675167692166	4386.5790851828
5	94508	29399.182799502734	3892.8122811786
5	94563	29416.90310220522	3372.834119159
5	94596	29428.279875351575	4863.3561932524
5	94660	29446.835642509621	559.65480971585
5	94723	29464.437879984725	1685.7090980706
5	94767	29477.30868718614	3369.6652627519
5	94772	29479.259010776031	1142.2505778891
5	94789	29483.976364120925	2250.1466354542
5	94792	29485.677240982736	1146.9061402061
5	94800	29488.451955080675	1684.4569414749
5	94874	29509.847253091533	1687.9790266788
5	94947	29531.158809692871	2260.6957827659
5	95030	29553.423625076833	6682.25737518
5	95048	29560.095726525682	3382.3802039211
5	95054	29563.529733898575	3928.2157934317
5	95071	29568.770313872481	1140.3949030613
5	95084	29574.408874989013	567.79233464809
5	95089	29576.311125202748	1143.2414081141
5	95112	29584.003881653296	1701.8144937176
5	95135	29591.672201221521	559.01309343407
5	95143	29595.083086148548	5779.6432556383
5	95201	29614.023488991792	7136.148134916
5	95268	29634.932278002138	2248.4270289228
5	95298	29645.115123232724	4390.6899001006
5	95324	29652.495964912223	566.74831326794
5	95331	29654.371886595236	1695.7448033656
5	95351	29661.146752909654	568.25299182579
5	95384	29671.432920996369	1125.8726084005
5	95412	29680.233789172852	566.74107086579
5	95422	29683.190318907881	3367.720798624
5	95470	29697.427048090929	1123.0171741859
5	95544	29719.822384310783	2248.558602469
5	95579	29728.130424933031	2251.8193057286
5	95587	29731.429067763395	2821.2498272951
5	95646	29749.127248524955	2817.9861106109
5	95678	29758.84631534767	2259.1442312307
5	95688	29761.654599062434	2816.2107046913
5	95698	29764.795036112225	1699.338965856
5	95749	29782.741850106499	1708.0254073136
5	95779	29792.693687871366	3964.8956799685
5	95792	29797.98496669539	2825.7415007029
5	95821	29805.894102371007	3973.9390961173
5	95833	29808.807344099402	558.07164625614
5	95841	29811.464836608327	2831.3343702035
5	95852	29816.839318383752	560.51962581861
5	95864	29820.319545121199	2832.1804767742
5	95872	29823.575790928943	1130.6596011399
5	95905	29834.069460775783	3407.1375510535
5	95913	29837.043560820898	561.47699543797
5	95950	29848.208916801481	1702.7679705353
5	96032	29871.747788826456	1699.5209778745
5	96056	29878.892059210955	3401.2309051365
5	96132	29901.111729095026	1119.1914920774
5	96137	29902.744865123822	3403.9684964041
5	96147	29906.255979808128	1708.2064038917
5	96213	29926.045398982135	566.38513087233
5	96220	29927.827987745297	2251.4723677917
5	96228	29930.866601952803	569.89573930076
5	96253	29942.107272630637	3951.3739317485
5	96276	29946.737440886987	1694.0108358034
5	96284	29950.282400386674	557.65284739247
5	96307	29957.887457639619	6796.3959178755
5	96387	29984.775395866006	2805.5766112561
5	96420	29993.310317651637	1697.2195810297
5	96435	29997.461669038691	2809.9191801268
6	47	21.529951594464	12.193268203657
6	105	49.647536233326	19.916446899762
6	177	72.322033204757	14.557065331888

