version 2
run Third_exit_2-11-20191114-11:42:53-8992
attr configname Third_exit_2
attr datetime 20191114-11:42:53
attr experiment Third_exit_2
attr inifile omnetpp.ini
attr iterationvars ""
attr iterationvarsf ""
attr measurement ""
attr network ResponseTimeNetwork
attr processid 8992
attr repetition 11
attr replication #11
attr resultdir results
attr runnumber 11
attr seedset 11
param **.Source.interArrivalTime exponential(6s)
param **.jobPriority bernoulli(0.8)
param **.PS.serviceTimeU1 "uniform(1.2s, 2.0s)"
param **.PS.serviceTimeU2 "uniform(2.4s, 2.8s)"
param **.SS1.serviceTime exponential(1.4s)
param **.SS2.serviceTime exponential(2s)
param **.PS.exitProbability bernoulli(0.2)

vector 0 ResponseTimeNetwork.QueueU1 queueLength:vector ETV
attr interpolationmode sample-hold
attr title "queue length, vector"
vector 1 ResponseTimeNetwork.SS1 queueLength:vector ETV
attr interpolationmode sample-hold
attr title "queue length, vector"
vector 2 ResponseTimeNetwork.sink lifeTimeU1:vector ETV
attr interpolationmode none
attr title "lifetime of arrived jobs U1, vector"
attr unit s
vector 3 ResponseTimeNetwork.sink totalServiceTimeU1:vector ETV
attr interpolationmode none
attr title "the total time spent  by arrived jobs U1, vector"
attr unit s
vector 4 ResponseTimeNetwork.sink lifeTime:vector ETV
attr interpolationmode none
attr title "lifetime of arrived jobs, vector"
attr unit s
vector 5 ResponseTimeNetwork.sink totalServiceTime:vector ETV
attr interpolationmode none
attr title "the total time spent  by arrived jobs, vector"
attr unit s
vector 6 ResponseTimeNetwork.sink lifeTimeU2:vector ETV
attr interpolationmode none
attr title "lifetime of arrived jobs U2, vector"
attr unit s
vector 7 ResponseTimeNetwork.sink totalServiceTimeU2:vector ETV
attr interpolationmode none
attr title "the total time spent  by arrived jobs U2, vector"
attr unit s
vector 8 ResponseTimeNetwork.QueueU2 queueLength:vector ETV
attr interpolationmode sample-hold
attr title "queue length, vector"
0	10475	10001.329099195422	1
0	10476	10002.04614284044	0
0	10485	10006.567630398734	1
0	10487	10007.138479194071	2
0	10488	10007.361293651202	1
0	10491	10009.078013525383	0
0	10495	10009.670492808471	1
0	10496	10011.001987014563	0
0	10500	10011.413709736646	1
0	10501	10012.614041628541	0
0	10510	10014.53942382356	1
0	10511	10015.746121412415	0
0	10530	10047.122376042734	1
0	10531	10047.32099344324	0
0	10570	10086.096490847035	1
0	10571	10086.849793350895	0
0	10710	10326.011363716534	1
0	10711	10326.406082272157	0
0	10740	10341.816410798968	1
0	10743	10342.63148459664	0
0	10750	10345.266459286194	1
0	10751	10345.594335552142	0
0	10790	10409.27402117997	1
0	10792	10409.845662424233	2
0	10794	10410.656092207312	3
0	10795	10410.761926261086	2
0	10798	10412.722565125797	1
0	10802	10413.034408830765	2
0	10803	10414.587357765745	1
0	10806	10416.573735876131	0
0	10820	10428.421982147012	1
0	10821	10429.509554931019	0
0	10835	10433.262013071426	1
0	10836	10434.440155576962	0
0	10880	10470.52248173302	1
0	10882	10471.022228203664	2
0	10883	10471.511341120845	1
0	10886	10473.163422086818	0
0	10950	10563.42136326247	1
0	10952	10563.484397920493	2
0	10953	10563.7879615146	1
0	10956	10565.223237326861	0
0	10965	10575.84418810195	1
0	10966	10577.005408260088	0
0	11005	10637.683629091917	1
0	11006	10639.413588632739	0
0	11075	10727.241425109404	1
0	11076	10728.945672447009	0
0	11110	10783.724114040965	1
0	11111	10784.667546320995	0
0	11115	10786.446453709849	1
0	11116	10786.53058912727	0
0	11120	10786.937283235959	1
0	11121	10788.371796849286	0
0	11160	10836.01356896995	1
0	11161	10836.85504312692	0
0	11175	10851.577531403286	1
0	11176	10852.157093588203	0
0	11210	10902.68263599493	1
0	11211	10903.493663431643	0
0	11240	10936.137512530475	1
0	11241	10936.600525854484	0
0	11250	10942.879482975486	1
0	11251	10943.223412253897	0
0	11272	10958.435589293084	1
0	11273	10958.468280562563	0
0	11277	10958.930161946054	1
0	11278	10959.864455136648	0
0	11310	10975.535260570614	1
0	11311	10976.242802958747	0
0	11340	11011.38418678737	1
0	11342	11011.803337190567	2
0	11345	11012.373557875271	1
0	11348	11013.786130382645	0
0	11355	11016.463466795914	1
0	11356	11017.156230933185	0
0	11375	11030.423417109417	1
0	11376	11030.879705288333	0
0	11390	11040.697617319583	1
0	11391	11041.733254668613	0
0	11465	11144.87800876136	1
0	11466	11145.672496025279	0
0	11490	11166.233916199826	1
0	11491	11167.499103954141	0
0	11525	11195.003039488176	1
0	11526	11195.911108991733	0
0	11560	11248.724233160016	1
0	11561	11249.126703385166	0
0	11575	11257.402298799633	1
0	11576	11258.315094019036	0
0	11685	11355.166863299658	1
0	11686	11356.701235497295	0
0	11690	11356.925480267557	1
0	11691	11357.937846458628	0
0	11700	11362.499700788376	1
0	11701	11363.442606143214	0
0	11730	11417.837324874651	1
0	11731	11418.292070115757	0
0	11785	11488.735906365715	1
0	11786	11489.653622545799	0
0	11865	11549.087004423764	1
0	11866	11549.284836848341	0
0	11880	11568.719920064731	1
0	11881	11569.516898075211	0
0	11885	11570.348853182345	1
0	11886	11570.826916154753	0
0	11900	11580.451194465155	1
0	11901	11581.878794000053	0
0	11925	11604.609678179754	1
0	11926	11605.469885596488	0
0	11935	11630.673410677252	1
0	11936	11631.493548253778	0
0	11945	11635.181294457195	1
0	11946	11636.437601836086	0
0	11995	11695.684221951706	1
0	11996	11696.168387589185	0
0	12052	11751.979308030714	1
0	12053	11752.06933763797	0
0	12060	11754.646877871894	1
0	12061	11755.665139376619	0
0	12070	11764.478013007409	1
0	12074	11764.543366465985	2
0	12075	11766.126302466963	1
0	12078	11768.087884952549	0
0	12105	11797.277984503656	1
0	12106	11798.160347596597	0
0	12110	11799.205437728835	1
0	12111	11799.451910334308	0
0	12160	11867.328512647921	1
0	12161	11868.044949150956	0
0	12165	11868.838129032144	1
0	12166	11869.420466774083	0
0	12170	11869.638230183298	1
0	12171	11871.081594633623	0
0	12192	11905.635524198854	1
0	12193	11906.439663349383	0
0	12205	11912.412520710428	1
0	12206	11913.52020409255	0
0	12270	11997.835372615781	1
0	12271	11998.570308336823	0
0	12275	12000.50204623297	1
0	12276	12000.512175259388	0
0	12300	12021.173433492652	1
0	12301	12021.318293661929	0
0	12310	12025.592712553181	1
0	12311	12026.591197853535	0
0	12315	12027.61197736418	1
0	12316	12027.952025382965	0
0	12335	12046.100561881978	1
0	12336	12046.793082658647	0
0	12340	12047.126297328604	1
0	12341	12048.167479867561	0
0	12380	12087.636846868222	1
0	12382	12088.496963907135	2
0	12383	12088.58899567394	1
0	12386	12089.790020991177	0
0	12390	12089.907074297948	1
0	12392	12091.300741165802	2
0	12393	12091.444373191022	1
0	12396	12092.662726762392	0
0	12405	12101.409709114325	1
0	12406	12101.79321166175	0
0	12462	12186.850066414654	1
0	12463	12187.195063516183	0
0	12540	12285.083313651154	1
0	12541	12286.015844726135	0
0	12560	12291.473281680569	1
0	12561	12292.486492638303	0
0	12565	12292.919431931454	1
0	12566	12293.982824023267	0
0	12600	12324.259885709814	1
0	12601	12325.441177064499	0
0	12605	12326.507214054085	1
0	12606	12327.309434919005	0
0	12632	12358.867590714954	1
0	12633	12359.025424314572	0
0	12640	12361.49776566398	1
0	12641	12362.133252244538	0
0	12645	12362.135146234131	1
0	12647	12362.270002085381	2
0	12648	12363.535441488682	1
0	12651	12365.042103963255	0
0	12655	12365.392128957035	1
0	12656	12366.30970437499	0
0	12662	12367.284112871864	1
0	12663	12367.770713586828	0
0	12667	12368.202854505279	1
0	12670	12369.393754849864	0
0	12695	12388.849540684575	1
0	12696	12390.37770882987	0
0	12735	12434.709613587438	1
0	12736	12435.567126270453	0
0	12755	12451.837639574107	1
0	12756	12452.348720357175	0
0	12760	12453.128175079405	1
0	12761	12454.286165785956	0
0	12820	12535.45456312834	1
0	12822	12536.251931188149	2
0	12823	12536.48435687547	1
0	12826	12538.337129471017	0
0	12845	12549.265602218402	1
0	12848	12551.147990434653	0
0	12855	12553.524585777867	1
0	12856	12554.30616662953	0
0	12875	12594.103809714949	1
0	12876	12595.552835795325	0
0	12940	12642.752034374686	1
0	12941	12643.683033134887	0
0	12960	12678.936043784717	1
0	12961	12679.791397701771	0
0	12985	12714.69330437256	1
0	12986	12715.499659423524	0
0	13060	12800.7184842842	1
0	13061	12801.3044453503	0
0	13070	12817.300157407662	1
0	13071	12817.923945679132	0
0	13075	12818.872552720127	1
0	13076	12819.305095957954	0
0	13080	12819.314675204619	1
0	13082	12820.646270499838	2
0	13083	12821.047069253389	1
0	13087	12822.689272020632	2
0	13088	12823.015269349691	1
0	13092	12824.094836951378	2
0	13093	12824.459910430376	1
0	13096	12826.32076483908	0
0	13110	12835.630952820836	1
0	13111	12836.560128808581	0
0	13115	12837.059231094653	1
0	13116	12837.790416764282	0
0	13125	12847.79634276962	1
0	13126	12848.106776248261	0
0	13140	12859.082998900862	1
0	13141	12860.438074273471	0
0	13145	12860.741754719048	1
0	13147	12861.49791080586	2
0	13148	12862.15842864443	1
0	13151	12863.431380766671	0
0	13190	12885.639840838303	1
0	13191	12886.299606470654	0
0	13230	12908.650602703649	1
0	13231	12909.99968528705	0
0	13330	13039.140358510485	1
0	13331	13040.483405785271	0
0	13335	13041.08794093495	1
0	13337	13041.516406280894	2
0	13339	13041.539150753396	3
0	13340	13042.298555897557	2
0	13343	13043.844223613114	1
0	13347	13044.711432457862	2
0	13348	13045.381443230816	1
0	13352	13045.678946947546	2
0	13353	13047.004999703363	1
0	13356	13048.625356364817	0
0	13450	13264.710895956819	1
0	13451	13266.131927853158	0
0	13455	13267.009781961341	1
0	13456	13268.018550627945	0
0	13500	13325.699891587932	1
0	13501	13326.772495428922	0
0	13515	13332.294786335886	1
0	13516	13333.388860158094	0
0	13530	13338.090164375472	1
0	13531	13338.307411278646	0
0	13557	13359.910722712442	1
0	13558	13361.044849201002	0
0	13580	13374.910843492292	1
0	13584	13375.599458176674	2
0	13585	13375.991991589733	1
0	13590	13377.668586913266	0
0	13597	13380.123388291806	1
0	13598	13380.502915646837	0
0	13605	13382.858459144835	1
0	13606	13383.550226353251	0
0	13645	13450.106351023215	1
0	13646	13451.253272010146	0
0	13660	13463.888965010369	1
0	13661	13464.737744960814	0
0	13710	13533.351720914457	1
0	13711	13534.280597872401	0
0	13740	13557.197847466465	1
0	13741	13558.074617802812	0
0	13780	13595.839966434918	1
0	13781	13597.18796447282	0
0	13795	13614.515963273206	1
0	13796	13614.857625199006	0
0	13805	13621.885053301276	1
0	13806	13622.956452649036	0
0	13810	13623.524636331276	1
0	13811	13624.740111505003	0
0	13815	13626.1098428711	1
0	13816	13626.516383471848	0
0	13885	13704.899218025943	1
0	13886	13705.021794509684	0
0	13895	13707.880921002208	1
0	13896	13708.031218813901	0
0	13990	13828.003579257925	1
0	13991	13829.179882586195	0
0	13995	13830.592686775279	1
0	13996	13831.062453260652	0
0	14005	13836.769154794818	1
0	14006	13836.94696934271	0
0	14010	13837.377967778635	1
0	14011	13838.630396865414	0
0	14055	13887.107007504741	1
0	14056	13888.041061342393	0
0	14082	13902.218910229442	1
0	14083	13902.289596857664	0
0	14095	13906.629690936971	1
0	14096	13907.762500923288	0
0	14110	13917.849491206813	1
0	14111	13919.204323246777	0
0	14130	13925.683270809763	1
0	14133	13927.391553792054	0
0	14139	13928.781441232985	1
0	14140	13929.261291565629	0
0	14144	13930.59638003672	1
0	14145	13930.927911675791	0
0	14152	13934.398148268758	1
0	14153	13934.401563138026	0
0	14180	13990.555245125289	1
0	14181	13990.702986159535	0
0	14190	13994.299420984067	1
0	14191	13995.351704814147	0
0	14195	13996.593341506611	1
0	14196	13996.942058282207	0
0	14200	13997.222293687063	1
0	14201	13998.837832393172	0
0	14220	14020.654985914622	1
0	14221	14022.116109793406	0
0	14230	14024.983392192656	1
0	14232	14025.449994864786	2
0	14233	14025.69168303642	1
0	14238	14027.393944568891	0
0	14242	14027.444232348608	1
0	14244	14029.250203140442	2
0	14245	14029.311905489821	1
0	14248	14031.273903406929	0
0	14265	14042.775162263966	1
0	14266	14043.995080182046	0
0	14290	14069.121470761974	1
0	14291	14070.088872512609	0
0	14320	14083.848786421737	1
0	14321	14084.996167190892	0
0	14415	14180.844725336696	1
0	14416	14181.858061148919	0
0	14460	14218.83990046476	1
0	14461	14219.188040856882	0
0	14505	14272.338368641246	1
0	14506	14272.518194292667	0
0	14515	14278.159454628195	1
0	14517	14278.870701579035	2
0	14518	14279.08888916216	1
0	14521	14280.613522079318	0
0	14525	14280.906672747179	1
0	14526	14282.344598371639	0
0	14535	14310.017025484211	1
0	14536	14311.159981381138	0
0	14545	14315.895074121117	1
0	14546	14317.235609228648	0
0	14585	14362.993240714658	1
0	14586	14363.618000655053	0
0	14590	14364.440276327324	1
0	14591	14365.371567186704	0
0	14595	14365.801545558395	1
0	14596	14367.289973115167	0
0	14605	14371.183611378432	1
0	14606	14371.55080582788	0
0	14640	14416.89615219772	1
0	14641	14418.235358856017	0
0	14655	14423.768691931577	1
0	14657	14423.944224720774	2
0	14659	14424.73612008911	3
0	14660	14425.058857883322	2
0	14663	14426.93004840407	1
0	14667	14427.74909882433	2
0	14668	14428.871266719507	1
0	14671	14430.594458306203	0
0	14690	14451.433956410486	1
0	14691	14451.855092781184	0
0	14740	14496.101743593042	1
0	14741	14497.795107154794	0
0	14765	14513.218776324577	1
0	14766	14514.542917809195	0
0	14785	14521.652884892883	1
0	14787	14521.988400986098	2
0	14788	14522.472658773835	1
0	14792	14523.112438753833	2
0	14793	14524.0476114077	1
0	14796	14525.794280063498	0
0	14830	14563.323339275052	1
0	14831	14563.33229979585	0
0	14840	14565.638067986684	1
0	14841	14566.382554638303	0
0	14900	14618.889478908152	1
0	14901	14619.709447154998	0
0	14905	14620.514609118336	1
0	14906	14621.652310363612	0
0	14910	14622.331067076909	1
0	14911	14623.194830460883	0
0	14927	14631.615911545747	1
0	14928	14631.940384731213	0
0	14935	14633.77806285828	1
0	14937	14634.90082698961	2
0	14938	14634.948926902148	1
0	14941	14636.521589639555	0
0	14945	14636.977639716942	1
0	14946	14637.778253713767	0
0	14995	14687.17082280348	1
0	14996	14688.480920681753	0
0	15005	14695.979138133212	1
0	15006	14696.916669791419	0
0	15010	14697.354887111441	1
0	15011	14698.542899511237	0
0	15030	14728.404035537124	1
0	15031	14729.504286077803	0
0	15045	14740.436514373785	1
0	15046	14740.861396983367	0
0	15065	14767.791768706178	1
0	15066	14767.949263421475	0
0	15095	14807.443737439002	1
0	15096	14808.239775767291	0
0	15130	14857.302580453902	1
0	15132	14857.365691055419	2
0	15133	14857.643087009984	1
0	15136	14859.535356646488	0
0	15150	14871.300866599697	1
0	15151	14872.674448687936	0
0	15160	14877.772377983391	1
0	15161	14878.413961433751	0
0	15175	14884.526715284466	1
0	15176	14885.616126828505	0
0	15185	14887.888572761515	1
0	15186	14889.150960185401	0
0	15220	14925.236040225424	1
0	15221	14926.621049266778	0
0	15225	14928.06634186562	1
0	15226	14928.072005159319	0
0	15232	14929.109191474998	1
0	15233	14929.785588513598	0
0	15265	14950.936309157976	1
0	15266	14952.400635448538	0
0	15360	15043.819460035695	1
0	15361	15043.868611639423	0
0	15380	15062.746953965092	1
0	15381	15064.159780135559	0
0	15385	15064.577323899452	1
0	15386	15065.610516205797	0
0	15395	15068.41482610401	1
0	15396	15069.216315014194	0
0	15445	15109.149232885616	1
0	15446	15110.290100118202	0
0	15450	15111.734149602442	1
0	15451	15112.038135628645	0
0	15525	15183.035710921729	1
0	15526	15183.156782874506	0
0	15530	15183.58999704149	1
0	15532	15184.504479429405	2
0	15533	15184.681970920082	1
0	15537	15185.718315151734	2
0	15538	15186.452759182121	1
0	15541	15188.045179276209	0
0	15545	15188.365220295627	1
0	15546	15189.342368550267	0
0	15560	15201.801057360049	1
0	15563	15202.396451736926	0
0	15575	15206.340160792317	1
0	15576	15208.083021034685	0
0	15610	15258.257801080887	1
0	15611	15259.398951294395	0
0	15635	15282.210891592484	1
0	15636	15283.793199796824	0
0	15675	15324.269479922002	1
0	15677	15325.357172390309	2
0	15678	15325.876918471549	1
0	15681	15327.488349676449	0
0	15685	15329.210089664788	1
0	15686	15329.364622225557	0
0	15690	15330.024319317976	1
0	15691	15331.148165016752	0
0	15695	15331.891017619483	1
0	15696	15333.139949829076	0
0	15710	15342.756887261622	1
0	15711	15343.900071393343	0
0	15715	15344.393856397321	1
0	15716	15345.271070051955	0
0	15735	15379.214137032831	1
0	15736	15380.146872676597	0
0	15775	15410.398719352405	1
0	15776	15411.798376676842	0
0	15780	15412.895330696748	1
0	15781	15413.360709029093	0
0	15785	15413.568733373429	1
0	15786	15414.577440145827	0
0	15830	15454.692846523965	1
0	15831	15454.863254232716	0
0	15845	15460.534577750325	1
0	15846	15461.16801604042	0
0	15850	15462.567150948571	1
0	15851	15463.080385004079	0
0	15855	15463.778924419322	1
0	15856	15464.730509440137	0
0	15865	15468.440934446082	1
0	15866	15469.596162308788	0
0	15875	15487.618231911764	1
0	15876	15488.235072030934	0
0	15892	15493.066394756955	1
0	15893	15493.068618709931	0
0	15920	15519.051212759999	1
0	15921	15520.553723409162	0
0	15942	15552.952782296993	1
0	15945	15554.503108553045	0
0	16005	15621.225210464804	1
0	16008	15622.115609131273	0
0	16060	15666.224458675457	1
0	16061	15667.787535794301	0
0	16065	15667.8359293117	1
0	16066	15669.76243854746	0
0	16080	15700.035884778778	1
0	16081	15700.905610338127	0
0	16100	15711.966486291436	1
0	16101	15713.639856034477	0
0	16140	15742.503095046185	1
0	16141	15742.669917959917	0
0	16145	15742.930468646815	1
0	16146	15743.994117660459	0
0	16150	15745.276549233238	1
0	16151	15745.845526590396	0
0	16175	15767.166910146317	1
0	16176	15767.274071254979	0
0	16180	15768.09202803334	1
0	16182	15768.227630520599	2
0	16183	15768.797205047707	1
0	16186	15769.998282883155	0
0	16190	15770.345657384482	1
0	16191	15771.797293638649	0
0	16195	15771.875083887761	1
0	16196	15773.021637249763	0
0	16200	15773.133275113975	1
0	16203	15774.473607213448	0
0	16207	15774.945266961242	1
0	16209	15775.230904157801	2
0	16210	15775.953681801657	1
0	16213	15777.575415071125	0
0	16235	15795.40447096322	1
0	16236	15795.828225622907	0
0	16240	15796.464905676955	1
0	16242	15796.789065730512	2
0	16243	15797.678757145837	1
0	16247	15798.307856459299	2
0	16248	15799.325015454575	1
0	16252	15800.438145999575	2
0	16253	15800.633541392371	1
0	16256	15802.517209126264	0
0	16260	15802.892006735998	1
0	16261	15804.384889107779	0
0	16265	15805.034773485787	1
0	16267	15805.559840508167	2
0	16268	15805.950131460861	1
0	16271	15807.718128282041	0
0	16300	15841.134220399227	1
0	16301	15841.55782622581	0
0	16357	15905.120797660162	1
0	16358	15905.387176180459	0
0	16385	15915.319517513582	1
0	16386	15916.684072750507	0
0	16400	15942.660552756611	1
0	16401	15942.940449452352	0
0	16410	15946.605893088249	1
0	16413	15948.359262214509	0
0	16417	15948.706603932383	1
0	16419	15948.9186716858	2
0	16420	15949.612044950296	1
0	16423	15951.327979247925	0
0	16440	15962.9264322812	1
0	16441	15963.340413923342	0
0	16460	15987.425539729833	1
0	16461	15989.012169255577	0
0	16470	15993.031608652586	1
0	16474	15993.655369566156	2
0	16475	15993.89746880708	1
0	16478	15995.735890020893	0
0	16482	15996.354145259476	1
0	16483	15997.181116633766	0
0	16500	16012.304801226771	1
0	16502	16012.359527324322	2
0	16503	16012.937881990615	1
0	16507	16014.251524198561	2
0	16508	16014.318058831151	1
0	16511	16016.144175824802	0
0	16560	16070.380801120316	1
0	16561	16071.679083982915	0
0	16610	16151.836186459564	1
0	16611	16152.845493047727	0
0	16615	16153.134709578452	1
0	16616	16154.057202597191	0
0	16645	16198.488083328263	1
0	16646	16199.474240973411	0
0	16650	16199.577732653298	1
0	16651	16200.750966581521	0
0	16675	16236.709436800738	1
0	16676	16236.861547116072	0
0	16685	16242.604810180242	1
0	16686	16242.980059336991	0
0	16715	16264.900828290238	1
0	16717	16265.007876268639	2
0	16719	16265.563232235875	3
0	16720	16266.027083184443	2
0	16723	16267.305935140386	1
0	16727	16268.266670802481	2
0	16728	16269.224347811624	1
0	16733	16270.763353425137	0
0	16737	16270.902695317249	1
0	16739	16271.44585994888	2
0	16740	16272.522567662097	1
0	16743	16273.979122273124	0
0	16747	16274.388981683704	1
0	16748	16275.501791979059	0
0	16755	16277.345870005453	1
0	16756	16278.633555873542	0
0	16760	16278.872234491731	1
0	16761	16280.36764370004	0
0	16765	16281.59248609062	1
0	16766	16281.951472139604	0
0	16770	16283.255750008271	1
0	16771	16283.909551655374	0
0	16785	16293.232111740553	1
0	16787	16293.954204379377	2
0	16788	16294.446108753897	1
0	16791	16296.292779914208	0
0	16800	16298.592792495397	1
0	16802	16298.753185118234	2
0	16803	16299.6118283826	1
0	16806	16301.041263084214	0
0	16825	16323.339715379105	1
0	16826	16323.649329861494	0
0	16835	16330.56150254207	1
0	16837	16331.664509145727	2
0	16838	16331.892939914765	1
0	16841	16333.104459300639	0
0	16845	16333.960275581486	1
0	16846	16334.976922527889	0
0	16850	16336.707696987542	1
0	16851	16336.721057220737	0
0	16860	16339.694637232795	1
0	16861	16340.833579374699	0
0	16865	16342.631113953314	1
0	16866	16342.696177046595	0
0	16870	16342.918278403306	1
0	16871	16344.195345272718	0
0	16875	16344.466687517306	1
0	16876	16345.741787524184	0
0	16880	16346.728096614159	1
0	16881	16347.11167819727	0
0	16885	16347.28656343109	1
0	16886	16348.591980219481	0
0	16895	16356.571722979671	1
0	16896	16357.153469840645	0
0	16905	16364.263196184358	1
0	16906	16364.48238206522	0
0	16970	16446.445173534985	1
0	16971	16446.572998303795	0
0	16975	16446.799609811687	1
0	16976	16448.567193756127	0
0	16980	16448.573670919232	1
0	16981	16449.916900093542	0
0	17000	16460.942556498685	1
0	17001	16462.20169533758	0
0	17030	16510.380166835997	1
0	17031	16512.190546047784	0
0	17055	16546.990540825575	1
0	17056	16547.307128830148	0
0	17105	16593.859636074581	1
0	17106	16594.493121527156	0
0	17130	16630.116075944981	1
0	17132	16630.135473686658	2
0	17133	16630.598685758362	1
0	17136	16631.999935321125	0
0	17140	16632.950375642624	1
0	17141	16633.611278120975	0
0	17180	16665.553775753211	1
0	17181	16666.299192435822	0
0	17205	16677.793709093662	1
0	17206	16678.516441963989	0
0	17210	16678.824307629223	1
0	17211	16679.997499751862	0
0	17225	16698.525461207525	1
0	17226	16698.839739095092	0
0	17240	16705.644293636541	1
0	17241	16706.104822139677	0
0	17305	16780.749674149304	1
0	17306	16781.095318749863	0
0	17325	16790.824557081202	1
0	17326	16792.105294630664	0
0	17345	16826.114655003063	1
0	17347	16826.643556338468	2
0	17349	16827.095263777461	3
0	17350	16827.391987403992	2
0	17354	16828.945736359151	3
0	17355	16828.969552959639	2
0	17359	16830.313214367911	3
0	17360	16830.407996173713	2
0	17363	16831.859322889845	1
0	17367	16833.356812353729	2
0	17368	16833.612343853104	1
0	17371	16835.062530945192	0
0	17450	16925.556614362983	1
0	17451	16925.652951712801	0
0	17480	16940.690615006165	1
0	17481	16941.981769511822	0
0	17495	16954.41774047551	1
0	17496	16954.427170636043	0
0	17505	16957.291117807097	1
0	17506	16957.50516632805	0
0	17525	16971.506391706194	1
0	17526	16972.983318057786	0
0	17560	17012.181144050171	1
0	17561	17012.686855628974	0
0	17565	17013.293833271754	1
0	17566	17014.109265515841	0
0	17570	17014.845314387904	1
0	17572	17015.537634197425	2
0	17573	17015.558251676596	1
0	17576	17017.531760860867	0
0	17605	17050.436756436043	1
0	17606	17050.765981397543	0
0	17640	17076.107900153829	1
0	17642	17076.891169822195	2
0	17643	17077.351178807363	1
0	17647	17078.258699951417	2
0	17648	17078.764796804421	1
0	17652	17079.244823403435	2
0	17653	17080.685166913614	1
0	17656	17081.987431460962	0
0	17695	17108.176812416119	1
0	17696	17109.579017342708	0
0	17760	17168.784276105088	1
0	17761	17169.309363146469	0
0	17777	17196.055480948852	1
0	17778	17196.509297061171	0
0	17785	17198.805715647285	1
0	17786	17200.091493432987	0
0	17795	17206.325004106819	1
0	17796	17207.47726351724	0
0	17810	17223.229710075425	1
0	17811	17223.569889164279	0
0	17830	17234.664240662677	1
0	17831	17235.218463196268	0
0	17840	17238.578655309856	1
0	17842	17238.94478250094	2
0	17843	17239.726203190929	1
0	17846	17241.649675211145	0
0	17885	17270.348583165861	1
0	17886	17271.710397985987	0
0	17895	17276.174925558575	1
0	17896	17276.518412378597	0
0	17950	17341.512123165331	1
0	17951	17342.941786863577	0
0	17965	17356.168044382088	1
0	17966	17356.934195680394	0
0	17970	17357.837256978003	1
0	17971	17358.637233372628	0
0	17975	17359.142851017921	1
0	17976	17360.563438143804	0
0	17985	17371.593109283397	1
0	17987	17371.944629180184	2
0	17988	17373.01535242911	1
0	17991	17374.642685599286	0
0	17995	17376.370616687934	1
0	17996	17376.474245145019	0
0	18015	17388.59496840693	1
0	18016	17389.913147268216	0
0	18020	17391.248036352032	1
0	18021	17391.563033376965	0
0	18027	17392.393172823847	1
0	18028	17392.996101608458	0
0	18032	17393.501381185851	1
0	18033	17394.197358585107	0
0	18050	17402.759087022533	1
0	18051	17403.911331893089	0
0	18075	17421.471372462593	1
0	18077	17421.484267243355	2
0	18078	17422.357758052176	1
0	18081	17423.585937353125	0
0	18105	17449.391461795657	1
0	18106	17450.87385657894	0
0	18110	17451.614621237455	1
0	18113	17452.410406828844	0
0	18135	17470.364369069683	1
0	18136	17471.74778444788	0
0	18165	17498.523302878864	1
0	18166	17499.209697624743	0
0	18175	17501.516923581939	1
0	18176	17502.315716036857	0
0	18180	17502.440650202958	1
0	18181	17503.869261966907	0
0	18195	17521.011681149649	1
0	18197	17521.409246715001	2
0	18198	17521.46642594379	1
0	18201	17523.21122171138	0
0	18225	17542.723177088763	1
0	18226	17543.37170683015	0
0	18235	17549.385248604345	1
0	18236	17549.59600074389	0
0	18255	17566.546453952787	1
0	18256	17567.067645446715	0
0	18275	17590.867261159782	1
0	18277	17591.270357421541	2
0	18278	17592.006011249978	1
0	18282	17593.037137086632	2
0	18283	17593.857590673599	1
0	18287	17593.96805993461	2
0	18288	17595.322841543626	1
0	18292	17596.596221120795	2
0	18293	17596.873952210244	1
0	18296	17598.134074306037	0
0	18310	17607.07133692276	1
0	18311	17607.447770951391	0
0	18315	17608.34390685864	1
0	18316	17608.920336092897	0
0	18330	17615.985916499936	1
0	18331	17616.209270621694	0
0	18380	17657.044534877675	1
0	18381	17658.589257176593	0
0	18405	17672.43552350617	1
0	18407	17672.607024603519	2
0	18408	17674.216416858971	1
0	18411	17675.730832072437	0
0	18415	17675.840983205529	1
0	18417	17676.159782783063	2
0	18418	17677.518615532384	1
0	18421	17679.469163427965	0
0	18450	17699.236988825809	1
0	18453	17699.972446216642	0
0	18470	17713.174489484438	1
0	18471	17714.478718890408	0
0	18500	17735.742919455681	1
0	18501	17736.067566457707	0
0	18510	17738.145871409203	1
0	18512	17738.899415942554	2
0	18514	17739.136190935297	3
0	18515	17739.407538770328	2
0	18519	17739.513190819453	3
0	18520	17741.342004546339	2
0	18523	17743.101044777783	1
0	18526	17744.650801124985	0
0	18555	17785.652609364238	1
0	18557	17785.721838042154	2
0	18559	17786.367218865151	3
0	18561	17786.69872011553	4
0	18562	17786.796079128175	3
0	18566	17787.275555128164	4
0	18567	17788.095181896477	3
0	18571	17789.938529171092	4
0	18572	17790.03959512183	3
0	18575	17792.01874576801	2
0	18578	17793.647748468756	1
0	18581	17795.167234623744	0
0	18610	17842.402142140787	1
0	18611	17842.512927254046	0
0	18615	17843.667108074051	1
0	18616	17844.069827841351	0
0	18630	17851.061765987766	1
0	18631	17852.440843039699	0
0	18645	17861.522181250386	1
0	18646	17863.014091944502	0
0	18690	17931.412689695138	1
0	18691	17932.207933138813	0
0	18720	17981.00755720737	1
0	18721	17981.439722178673	0
0	18775	18042.934073942475	1
0	18776	18044.187991252634	0
0	18787	18050.4614950789	1
0	18788	18050.814636888807	0
0	18835	18090.534435569857	1
0	18836	18092.446753208196	0
0	18885	18125.432009088685	1
0	18886	18126.982849000972	0
0	18890	18127.864711000178	1
0	18891	18128.918314151112	0
0	18895	18129.930650263705	1
0	18896	18130.24832150491	0
0	18935	18174.082797867928	1
0	18936	18174.339538295864	0
0	18965	18217.864357832206	1
0	18966	18219.440325629208	0
0	18970	18220.29274195312	1
0	18971	18221.244834014084	0
0	18975	18222.153655311094	1
0	18976	18222.798453800995	0
0	18980	18223.459039159218	1
0	18981	18224.034324937556	0
0	18985	18224.11995428569	1
0	18987	18224.174035062269	2
0	18988	18225.524725371096	1
0	18992	18225.674106914352	2
0	18993	18227.261052920539	1
0	18996	18228.589026825745	0
0	19000	18228.838171516638	1
0	19001	18230.413406236898	0
0	19005	18230.420990148343	1
0	19006	18231.851990332138	0
0	19020	18244.212969494006	1
0	19021	18245.456849307161	0
0	19060	18273.784426290947	1
0	19061	18274.419993301902	0
0	19070	18276.453114485656	1
0	19071	18277.033110825267	0
0	19082	18280.033313484364	1
0	19083	18280.489664880495	0
0	19120	18297.049490645674	1
0	19121	18297.928053089465	0
0	19160	18350.771988373469	1
0	19161	18351.770401720703	0
0	19170	18355.104636572273	1
0	19171	18356.189266410576	0
0	19175	18357.343842804783	1
0	19176	18357.528981785955	0
0	19180	18357.703294930644	1
0	19182	18358.067604581225	2
0	19185	18359.360947587634	1
0	19190	18360.887948767202	0
0	19197	18362.9532272853	1
0	19198	18364.592026236014	0
0	19212	18368.725753407235	1
0	19213	18368.867081952386	0
0	19217	18369.999505328666	1
0	19218	18370.586460381292	0
0	19225	18373.131855038178	1
0	19226	18373.217653822259	0
0	19230	18373.464848567798	1
0	19231	18374.493679975078	0
0	19235	18375.007774318852	1
0	19236	18375.993196412094	0
0	19240	18376.393359252411	1
0	19242	18377.806755551593	2
0	19243	18377.918657919683	1
0	19246	18379.51520697783	0
0	19270	18401.614465133079	1
0	19271	18402.091624056439	0
0	19320	18471.642001248858	1
0	19321	18471.763879827407	0
0	19330	18474.426900684208	1
0	19331	18475.007692557505	0
0	19345	18479.874352921249	1
0	19346	18480.955847457871	0
0	19415	18575.607143435565	1
0	19416	18576.54957208686	0
0	19420	18576.79778058154	1
0	19421	18577.806518984926	0
0	19425	18577.992427670376	1
0	19426	18579.419442170453	0
0	19465	18629.762486022115	1
0	19466	18630.428139173745	0
0	19470	18632.385267492528	1
0	19471	18632.419765380344	0
0	19485	18648.492420727738	1
0	19486	18650.126335497495	0
0	19500	18655.042084113806	1
0	19501	18656.261279160722	0
0	19520	18663.701540783793	1
0	19521	18664.576149220722	0
0	19555	18689.0323290817	1
0	19556	18689.434577399934	0
0	19565	18690.909021643146	1
0	19566	18692.131289263841	0
0	19625	18761.428291022321	1
0	19626	18761.509289743175	0
0	19650	18782.111799905962	1
0	19651	18782.24578027296	0
0	19655	18782.917084963664	1
0	19656	18783.4949518321	0
0	19675	18800.257974564282	1
0	19676	18800.28038460561	0
0	19682	18801.111658905273	1
0	19683	18801.703442586818	0
0	19692	18804.164042663966	1
0	19693	18804.846597793744	0
0	19697	18805.346592572459	1
0	19698	18806.309810985484	0
0	19710	18810.400249012804	1
0	19711	18810.91643947614	0
0	19715	18811.55508143239	1
0	19716	18812.21998392576	0
0	19730	18839.792528133737	1
0	19731	18841.051292605832	0
0	19735	18841.508617006551	1
0	19736	18843.049414124101	0
0	19740	18843.782434485031	1
0	19741	18844.572359462589	0
0	19770	18877.027217661909	1
0	19771	18877.573254164004	0
0	19785	18883.561036613141	1
0	19786	18885.119209179644	0
0	19800	18891.353437358628	1
0	19801	18892.591249818519	0
0	19805	18893.594792313958	1
0	19806	18894.135000270397	0
0	19810	18894.840351528739	1
0	19811	18895.580973868795	0
0	19920	19060.727548826819	1
0	19921	19060.823677476541	0
0	19965	19101.360158252993	1
0	19966	19102.537572228241	0
0	19970	19102.669896082922	1
0	19972	19103.287910977564	2
0	19974	19103.746251852365	3
0	19975	19104.214786205332	2
0	19978	19105.576607853811	1
0	19981	19107.334320879992	0
0	19990	19109.891493507018	1
0	19991	19111.296183816646	0
0	20020	19129.217791062007	1
0	20021	19129.480254668942	0
0	20025	19129.709955969375	1
0	20026	19130.893279148093	0
0	20090	19284.023949544882	1
0	20091	19284.623361016107	0
0	20097	19285.38537243458	1
0	20098	19286.045932901134	0
0	20105	19288.159495596427	1
0	20106	19289.033445064207	0
0	20110	19290.503573614599	1
0	20111	19290.812359463652	0
0	20140	19312.382803400919	1
0	20141	19312.923811840552	0
0	20150	19316.799580755027	1
0	20151	19317.983333778834	0
0	20155	19319.187027061101	1
0	20156	19319.24801677548	0
0	20175	19332.927014342668	1
0	20176	19332.96373905549	0
0	20190	19345.098296075045	1
0	20191	19346.008097750164	0
0	20205	19351.284060246313	1
0	20206	19352.984553647747	0
0	20220	19361.797610038717	1
0	20221	19362.854613673766	0
0	20260	19396.291452236408	1
0	20263	19397.057317397557	0
0	20267	19397.301885321194	1
0	20268	19398.734175035357	0
0	20275	19400.840356005911	1
0	20276	19402.087084630876	0
0	20290	19406.975558697418	1
0	20291	19408.871081671728	0
0	20315	19438.480366823619	1
0	20318	19439.521193490212	0
0	20330	19444.913226206357	1
0	20332	19445.297814705529	2
0	20333	19445.472876207966	1
0	20337	19445.853908432809	2
0	20338	19447.402526021253	1
0	20342	19447.618974275554	2
0	20343	19448.691505776968	1
0	20347	19449.508194361043	2
0	20349	19450.024319115928	3
0	20350	19450.134429718059	2
0	20353	19451.440903841395	1
0	20356	19452.727064936671	0
0	20360	19453.483694998719	1
0	20362	19453.68325832959	2
0	20364	19454.484914180393	3
0	20365	19454.561550826456	2
0	20369	19455.027183627853	3
0	20370	19456.035116142656	2
0	20374	19457.120576138198	3
0	20375	19457.65638869262	2
0	20378	19459.292450965817	1
0	20381	19460.813883399281	0
0	20407	19479.829936849093	1
0	20408	19481.312186481972	0
0	20422	19486.943863626331	1
0	20423	19487.528042808325	0
0	20430	19490.252276752582	1
0	20431	19490.728971026056	0
0	20480	19554.672234854776	1
0	20481	19555.039290077946	0
0	20485	19555.489402779439	1
0	20486	19556.899051609224	0
0	20500	19562.080422916542	1
0	20501	19562.114465760595	0
0	20505	19562.386228260812	1
0	20506	19563.938810191459	0
0	20515	19565.44070872843	1
0	20516	19566.95811276002	0
0	20520	19567.351065463733	1
0	20522	19567.989579301781	2
0	20523	19568.911417577734	1
0	20527	19569.102813522451	2
0	20528	19570.708639477325	1
0	20531	19572.228124053908	0
0	20535	19572.997431262001	1
0	20536	19573.960301600901	0
0	20540	19575.36649306623	1
0	20541	19575.905689335933	0
0	20550	19578.735987907489	1
0	20551	19579.078804324886	0
0	20585	19604.431789027695	1
0	20586	19606.027404887603	0
0	20615	19625.386512704896	1
0	20616	19626.639181332494	0
0	20625	19628.871444688359	1
0	20626	19629.804128862992	0
0	20680	19721.469340794192	1
0	20681	19722.431761080038	0
0	20705	19754.902125867643	1
0	20706	19754.983206582176	0
0	20730	19783.948519957902	1
0	20732	19784.465627417453	2
0	20733	19784.606966696115	1
0	20736	19786.329155564675	0
0	20770	19804.839755771489	1
0	20771	19806.293439027173	0
0	20795	19819.470671494513	1
0	20796	19820.534692062509	0
0	20815	19834.44566122506	1
0	20817	19834.901210236912	2
0	20819	19835.178700821197	3
0	20820	19836.031276436195	2
0	20824	19836.606757129302	3
0	20825	19837.408196649745	2
0	20829	19838.552559069749	3
0	20830	19838.950285581544	2
0	20833	19840.55002646786	1
0	20837	19840.589113733751	2
0	20838	19841.878947582513	1
0	20841	19843.226758750945	0
0	20850	19846.804768074965	1
0	20852	19847.768074352679	2
0	20853	19847.988116900529	1
0	20856	19849.504012210573	0
0	20860	19850.185574063265	1
0	20861	19851.300837226863	0
0	20865	19852.972862901048	1
0	20866	19852.97352273045	0
0	20890	19867.721360702385	1
0	20891	19869.002186032006	0
0	20905	19876.85625167902	1
0	20906	19877.046670970622	0
0	20930	19891.743195733492	1
0	20931	19892.709605846427	0
0	20965	19921.53396998294	1
0	20966	19921.852171812765	0
0	20975	19941.525704291091	1
0	20976	19942.311078990313	0
0	20990	19953.129041296889	1
0	20991	19954.003678179146	0
0	21020	19990.95188811377	1
0	21021	19991.591368985462	0
0	21080	20073.186975069776	1
0	21081	20074.725304402026	0
0	21125	20149.436648179529	1
0	21126	20150.514025354034	0
0	21135	20156.853655533948	1
0	21137	20157.211279841217	2
0	21138	20157.541327979709	1
0	21141	20159.116569115887	0
0	21150	20161.728831606324	1
0	21151	20163.334620875077	0
0	21155	20163.748992818989	1
0	21157	20163.941573931702	2
0	21158	20165.113378998035	1
0	21161	20166.471831244001	0
0	21170	20169.381425846029	1
0	21171	20170.864349432455	0
0	21180	20174.044616886018	1
0	21181	20174.876708061747	0
0	21190	20177.62389636713	1
0	21191	20178.652505078855	0
0	21235	20204.939878599425	1
0	21236	20205.470542975583	0
0	21340	20332.461951393566	1
0	21341	20334.250978156138	0
0	21385	20379.395201013637	1
0	21386	20379.608056718832	0
0	21390	20380.523204326866	1
0	21391	20381.461846128268	0
0	21395	20382.667606342396	1
0	21396	20382.815970258763	0
0	21400	20383.459151647045	1
0	21401	20384.613376463367	0
0	21455	20464.399020975815	1
0	21456	20464.528480072426	0
0	21460	20464.865529595398	1
0	21461	20466.333972044396	0
0	21480	20477.668290329371	1
0	21481	20479.067381352113	0
0	21510	20531.793543206087	1
0	21511	20532.298235168444	0
0	21515	20533.631942130361	1
0	21516	20534.008337739805	0
0	21525	20541.531580414685	1
0	21526	20543.021960273604	0
0	21530	20544.132836328175	1
0	21531	20544.436393798175	0
0	21550	20579.248052357871	1
0	21551	20579.364046953581	0
0	21565	20593.496137861411	1
0	21566	20594.563602425426	0
0	21580	20600.208123726661	1
0	21581	20600.792341823166	0
0	21585	20601.453340042426	1
0	21586	20602.592186099699	0
0	21655	20688.245804835949	1
0	21657	20688.380158566143	2
0	21658	20688.804231349738	1
0	21662	20689.36225595748	2
0	21663	20690.452611883903	1
0	21667	20690.703206103735	2
0	21668	20692.054596679831	1
0	21671	20693.28131091016	0
0	21675	20693.343305810774	1
0	21676	20694.826693623686	0
0	21705	20714.91581561264	1
0	21706	20715.634673797849	0
0	21730	20736.591200466202	1
0	21731	20736.946790486883	0
0	21740	20741.724070545418	1
0	21742	20741.75956338409	2
0	21743	20742.308002657318	1
0	21746	20744.100843189531	0
0	21755	20749.911972959546	1
0	21757	20750.259101863973	2
0	21758	20751.119988585557	1
0	21761	20752.891950523215	0
0	21770	20755.362413556919	1
0	21773	20756.169332220696	0
0	21835	20835.37389627013	1
0	21836	20836.055742798335	0
0	21840	20836.07898021977	1
0	21841	20837.575054024122	0
0	21860	20855.524416321053	1
0	21861	20856.062066222802	0
0	21885	20888.248721233801	1
0	21886	20888.324419359372	0
0	21890	20888.449490132422	1
0	21891	20889.748885749348	0
0	21895	20890.491538578625	1
0	21896	20891.243719942749	0
0	21902	20892.308332767544	1
0	21904	20892.452717911931	2
0	21905	20893.006695489839	1
0	21908	20894.659690518	0
0	21920	20901.155560964078	1
0	21921	20901.598755451109	0
0	21935	20939.672176093268	1
0	21936	20940.033825173204	0
0	21980	21009.642160306667	1
0	21981	21010.902394437218	0
0	22000	21037.284956850928	1
0	22001	21037.579091633255	0
0	22025	21056.001911752525	1
0	22026	21056.967613723446	0
0	22055	21100.649919843873	1
0	22056	21101.934366228026	0
0	22080	21145.273737278565	1
0	22081	21145.287007615428	0
0	22085	21145.591190844949	1
0	22086	21146.648031184163	0
0	22110	21158.694623752914	1
0	22111	21159.975509691777	0
0	22125	21175.921930433112	1
0	22126	21176.555922481962	0
0	22135	21201.832600838125	1
0	22137	21202.543434488984	2
0	22138	21202.672420009579	1
0	22142	21202.945049540255	2
0	22144	21203.936453993639	3
0	22145	21204.628382146339	2
0	22148	21206.237031277995	1
0	22151	21207.681010406445	0
0	22155	21207.809293588297	1
0	22157	21207.92317240815	2
0	22158	21209.149292038734	1
0	22162	21209.862877713836	2
0	22163	21210.802898298371	1
0	22166	21212.482217926327	0
0	22170	21213.496464752234	1
0	22171	21214.205416997503	0
0	22175	21215.367296404755	1
0	22176	21215.414365117978	0
0	22185	21219.709369158628	1
0	22187	21220.784176777742	2
0	22189	21221.056579657329	3
0	22190	21221.123909829296	2
0	22193	21223.094266575128	1
0	22197	21224.037200873271	2
0	22198	21224.34379518807	1
0	22201	21226.28386737641	0
0	22305	21329.751673735776	1
0	22306	21330.899272496321	0
0	22310	21330.969137352527	1
0	22311	21332.382710635357	0
0	22325	21346.893567572502	1
0	22326	21348.518636531448	0
0	22345	21358.144206890804	1
0	22346	21358.23252697028	0
0	22365	21378.874987419173	1
0	22366	21378.970327607351	0
0	22400	21418.367843907	1
0	22401	21419.740167131369	0
0	22410	21422.01910956057	1
0	22411	21423.116167259496	0
0	22435	21439.227063540275	1
0	22437	21440.3684841876	2
0	22438	21440.799035566856	1
0	22441	21442.410170001906	0
0	22445	21442.727767704628	1
0	22448	21443.813130775091	0
0	22475	21462.006165098536	1
0	22476	21462.31327768177	0
0	22545	21533.822851823224	1
0	22546	21535.216716155879	0
0	22555	21545.784121522601	1
0	22556	21546.533869266611	0
0	22565	21549.853180318142	1
0	22566	21550.844051748881	0
0	22585	21563.939071805024	1
0	22586	21565.216811304888	0
0	22605	21580.11144735454	1
0	22606	21580.354225239004	0
0	22680	21676.005194677201	1
0	22681	21676.39497610408	0
0	22690	21694.000640529859	1
0	22692	21694.018686524018	2
0	22693	21694.168859440013	1
0	22697	21695.804272351129	2
0	22698	21695.967292075529	1
0	22702	21696.050689389871	2
0	22704	21696.554211733601	3
0	22705	21697.724987490586	2
0	22709	21698.925136404486	3
0	22710	21699.704205854348	2
0	22715	21701.173480509146	1
0	22719	21701.666716679651	2
0	22720	21702.475316482707	1
0	22723	21703.892662456556	0
0	22740	21721.036324724327	1
0	22741	21721.616078240678	0
0	22750	21724.68707433706	1
0	22751	21725.193466625471	0
0	22755	21725.822380596611	1
0	22756	21726.992089158591	0
0	22790	21758.39490465273	1
0	22791	21758.99136724646	0
0	22795	21759.26395119162	1
0	22798	21760.866547312464	0
0	22802	21762.098306400458	1
0	22803	21762.372980092342	0
0	22810	21763.829206003397	1
0	22811	21764.916621654357	0
0	22865	21818.761404026454	1
0	22868	21819.364069086959	0
0	22880	21840.951491884242	1
0	22881	21841.914507143306	0
0	22885	21842.231589232332	1
0	22886	21843.424033727976	0
0	22925	21900.448267048841	1
0	22926	21901.155954048902	0
0	22930	21902.210458990622	1
0	22931	21902.585731845468	0
0	22935	21902.8943680854	1
0	22936	21904.235484703563	0
0	22965	21926.79074211539	1
0	22966	21928.56109570794	0
0	23015	21973.002100168985	1
0	23016	21973.067701797513	0
0	23020	21973.384991379665	1
0	23022	21973.679122562454	2
0	23023	21974.392603401607	1
0	23027	21975.547956882147	2
0	23030	21976.097239904991	1
0	23033	21977.658763665846	0
0	23037	21977.799478842268	1
0	23038	21979.440844568191	0
0	23045	21982.775291842825	1
0	23046	21983.156565640448	0
0	23085	22037.922345636387	1
0	23086	22039.033865382613	0
0	23150	22094.567976894135	1
0	23151	22095.284937209868	0
0	23230	22194.369447195849	1
0	23231	22195.614715964338	0
0	23235	22195.72756651964	1
0	23236	22197.048951787306	0
0	23270	22222.400697161829	1
0	23272	22223.033810539425	2
0	23273	22223.620092637047	1
0	23276	22225.380451311312	0
0	23280	22227.176941055035	1
0	23281	22227.225266418374	0
0	23290	22231.772720837905	1
0	23292	22231.82539087947	2
0	23293	22232.533186905389	1
0	23296	22234.317937278492	0
0	23305	22239.553918502434	1
0	23306	22240.706598622377	0
0	23340	22264.217798083897	1
0	23341	22265.834939103799	0
0	23375	22323.130208959494	1
0	23376	22324.676872316183	0
0	23380	22324.6905071868	1
0	23381	22326.125960290053	0
0	23392	22328.954716872889	1
0	23393	22329.907693130421	0
0	23402	22331.700801378831	1
0	23404	22331.860703796982	2
0	23405	22332.81758324531	1
0	23408	22334.254429894398	0
0	23412	22335.274107989043	1
0	23413	22335.649665601264	0
0	23420	22337.473095794328	1
0	23422	22337.76025819376	2
0	23423	22338.473355616155	1
0	23426	22340.427722001905	0
0	23475	22379.308608568637	1
0	23476	22379.914759374617	0
0	23485	22388.490856931941	1
0	23486	22388.811794752709	0
0	23500	22399.11242231611	1
0	23501	22400.67458232453	0
0	23505	22401.419047016885	1
0	23506	22402.167475871908	0
0	23590	22500.385998096644	1
0	23591	22501.977980138371	0
0	23620	22553.453361821134	1
0	23621	22553.940505064402	0
0	23680	22664.847365453008	1
0	23681	22666.535384776888	0
0	23742	22737.995932910476	1
0	23743	22738.112849789233	0
0	23750	22739.471502866548	1
0	23752	22739.75053393276	2
0	23753	22741.190168341369	1
0	23756	22742.500956723214	0
0	23765	22744.608770102952	1
0	23766	22746.426923762196	0
0	23785	22771.458091542706	1
0	23786	22771.858191472025	0
0	23845	22829.632153644124	1
0	23846	22830.876531792205	0
0	23850	22831.781812564744	1
0	23851	22832.178056977276	0
0	23895	22858.701972843831	1
0	23896	22859.712906313392	0
0	23900	22860.08362225992	1
0	23901	22861.508446880321	0
0	23930	22889.55214329555	1
0	23931	22889.900857882071	0
0	23935	22891.356839030186	1
0	23936	22891.879855345618	0
0	23950	22910.998490127987	1
0	23951	22911.250048757255	0
0	23955	22912.642062160849	1
0	23956	22913.139166114949	0
0	23965	22928.052455823116	1
0	23966	22929.108366008139	0
0	23985	22941.122769630233	1
0	23986	22941.508240778917	0
0	24025	22983.409340005866	1
0	24026	22983.955258488225	0
0	24040	22988.260306558457	1
0	24041	22989.079619412927	0
0	24075	23010.180383517391	1
0	24076	23010.647495316589	0
0	24085	23015.253729043793	1
0	24086	23015.600595503366	0
0	24090	23015.981007108783	1
0	24092	23017.064503217312	2
0	24093	23017.494276041603	1
0	24096	23018.911831409922	0
0	24135	23048.058906874583	1
0	24136	23049.182732475106	0
0	24160	23068.014851827332	1
0	24161	23068.444245512269	0
0	24170	23073.487503049511	1
0	24171	23073.976096160455	0
0	24180	23080.535693655748	1
0	24181	23081.688955135925	0
0	24185	23082.272039422633	1
0	24186	23083.356864718443	0
0	24205	23091.615528790782	1
0	24206	23092.918628088573	0
0	24225	23118.072066732918	1
0	24227	23118.552281628961	2
0	24228	23118.758809070324	1
0	24233	23120.036516309378	0
0	24275	23189.141932171265	1
0	24276	23189.163745859449	0
0	24285	23193.245054825537	1
0	24286	23194.245157948864	0
0	24290	23194.657263065827	1
0	24292	23195.110823109314	2
0	24294	23196.183610970273	3
0	24295	23196.23882788418	2
0	24298	23197.915530825017	1
0	24301	23199.485193396157	0
0	24305	23200.201150761825	1
0	24307	23201.047854020021	2
0	24308	23201.087735194696	1
0	24312	23201.714364466785	2
0	24313	23202.445551661944	1
0	24316	23204.168887067756	0
0	24350	23247.106784964164	1
0	24351	23247.643211429377	0
0	24365	23252.836690810116	1
0	24366	23253.270556820116	0
0	24370	23254.245420333963	1
0	24371	23255.018743225678	0
0	24430	23333.589474409711	1
0	24434	23334.040221899995	2
0	24436	23334.184459964902	3
0	24437	23334.302642913916	2
0	24441	23335.688774615612	3
0	24442	23335.698075065211	2
0	24446	23336.347069164452	3
0	24447	23337.118116570458	2
0	24450	23338.624077883743	1
0	24453	23340.044808841504	0
0	24460	23343.03908149404	1
0	24461	23343.557759362467	0
0	24480	23352.393076570403	1
0	24481	23352.825015210193	0
0	24490	23355.153130026698	1
0	24491	23356.653273308703	0
0	24505	23365.367607718286	1
0	24506	23365.798804864007	0
0	24555	23432.727122582873	1
0	24558	23433.782402537969	0
0	24562	23434.574746446379	1
0	24563	23435.425317372401	0
0	24567	23436.152556638644	1
0	24568	23437.203424959277	0
0	24600	23453.158563935073	1
0	24601	23454.236577705962	0
0	24620	23481.506742558596	1
0	24621	23481.805230914975	0
0	24625	23482.588236965843	1
0	24626	23483.224189374583	0
0	24630	23484.269520044229	1
0	24633	23484.524378970253	0
0	24640	23486.434834789624	1
0	24642	23487.13128885947	2
0	24643	23487.735976523521	1
0	24647	23488.13021999894	2
0	24650	23489.512540147627	1
0	24654	23490.300552822467	2
0	24655	23490.714112282159	1
0	24659	23490.714646388747	2
0	24660	23492.15181066821	1
0	24663	23493.518628780904	0
0	24685	23501.114264230065	1
0	24686	23502.058412947307	0
0	24700	23513.174716163694	1
0	24701	23513.713130553768	0
0	24730	23531.638952558213	1
0	24731	23532.496263293279	0
0	24740	23534.408096050512	1
0	24741	23535.870223251087	0
0	24765	23563.913582681831	1
0	24766	23564.149898198231	0
0	24810	23609.491508004098	1
0	24811	23609.738669154738	0
0	24855	23659.501828183214	1
0	24856	23660.760539194576	0
0	24870	23666.190168778903	1
0	24871	23667.529666320452	0
0	24895	23683.308263606295	1
0	24896	23683.606435950363	0
0	24965	23733.446410897378	1
0	24966	23735.08594183437	0
0	25015	23790.068092581447	1
0	25016	23791.340499918258	0
0	25025	23794.600100977172	1
0	25027	23795.389000152416	2
0	25028	23795.447066469694	1
0	25032	23795.624829409948	2
0	25033	23797.183630765247	1
0	25037	23798.146176376703	2
0	25039	23798.359615144982	3
0	25040	23798.4696742695	2
0	25043	23799.828857909719	1
0	25047	23799.94199071728	2
0	25048	23801.623801773431	1
0	25051	23803.186854818108	0
0	25080	23827.416140757857	1
0	25081	23828.912223254126	0
0	25115	23867.612230258757	1
0	25117	23868.33479273058	2
0	25118	23869.063401985518	1
0	25121	23870.611056246958	0
0	25155	23895.812836721965	1
0	25156	23895.98817103621	0
0	25180	23921.548391092553	1
0	25182	23921.867647852349	2
0	25183	23922.170581551163	1
0	25186	23923.392960395558	0
0	25190	23924.948624116531	1
0	25191	23925.175230957648	0
0	25215	23951.126238464761	1
0	25216	23952.641183817376	0
0	25245	23971.509705021203	1
0	25246	23971.892528159722	0
0	25250	23973.468264992641	1
0	25251	23973.878785963721	0
0	25270	23986.91358519538	1
0	25271	23987.241991093586	0
0	25380	24178.793767160545	1
0	25381	24179.587604930909	0
0	25405	24213.354428989939	1
0	25406	24213.602910411005	0
0	25410	24213.898378355385	1
0	25412	24214.033968569334	2
0	25414	24214.669471903363	3
0	25415	24215.340049040337	2
0	25418	24216.548796555978	1
0	25422	24217.224441606812	2
0	25423	24217.890386513454	1
0	25427	24218.106219121362	2
0	25428	24219.501486561653	1
0	25432	24220.359877479254	2
0	25433	24220.922373277341	1
0	25437	24221.379650645211	2
0	25439	24221.959495439361	3
0	25440	24222.453546293472	2
0	25444	24222.930131251527	3
0	25445	24224.291070967001	2
0	25448	24225.837893003618	1
0	25451	24227.512737009881	0
0	25455	24227.59168085955	1
0	25457	24227.80325476691	2
0	25458	24229.048084817102	1
0	25461	24230.958147477379	0
0	25465	24232.580322238221	1
0	25466	24232.808770483008	0
0	25470	24233.283714656739	1
0	25471	24234.181472340806	0
0	25500	24270.011480110579	1
0	25501	24270.625365481975	0
0	25505	24270.835360036245	1
0	25506	24272.527303436103	0
0	25550	24303.708031669804	1
0	25553	24304.888562679892	0
0	25559	24306.391073435531	1
0	25560	24306.663179397998	0
0	25564	24306.839032960469	1
0	25566	24307.505021940381	2
0	25567	24308.635177344685	1
0	25571	24308.637924317409	2
0	25573	24309.246459705781	3
0	25574	24310.616306564441	2
0	25577	24312.276053559823	1
0	25583	24313.92327397784	2
0	25584	24313.952339516064	1
0	25587	24315.796376854783	0
0	25594	24317.93496834595	1
0	25595	24318.976835877119	0
0	25604	24320.59121337823	1
0	25605	24322.117314224734	0
0	25609	24323.041988223988	1
0	25610	24323.657589555576	0
0	25640	24349.686219091478	1
0	25641	24351.123045866482	0
0	25650	24359.318793218266	1
0	25651	24359.37489933098	0
0	25655	24360.757674617858	1
0	25656	24361.120130605868	0
0	25660	24361.356020501595	1
0	25661	24362.43593373379	0
0	25665	24362.886825507063	1
0	25666	24364.078597807011	0
0	25670	24364.759583861834	1
0	25672	24365.288418996679	2
0	25673	24365.468687371968	1
0	25676	24366.850449154026	0
0	25680	24367.231798438667	1
0	25681	24368.477424239612	0
0	25765	24516.648787704168	1
0	25766	24516.738846021159	0
0	25770	24516.743546961307	1
0	25772	24517.951841828854	2
0	25773	24518.551877949214	1
0	25777	24518.791093578292	2
0	25778	24520.493347503445	1
0	25782	24520.56845581797	2
0	25783	24521.892803899958	1
0	25786	24523.420244780011	0
0	25790	24524.652881993097	1
0	25791	24525.023893308654	0
0	25795	24525.2273467839	1
0	25796	24526.229978322625	0
0	25910	24657.984545968623	1
0	25911	24659.630294685483	0
0	25930	24673.230451885022	1
0	25932	24673.525480161486	2
0	25934	24674.419482416481	3
0	25935	24674.878285259599	2
0	25938	24676.718230233932	1
0	25942	24676.889935405746	2
0	25943	24678.19098918348	1
0	25947	24678.678642167782	2
0	25948	24679.422255370425	1
0	25951	24681.316171431014	0
0	25955	24682.533995880244	1
0	25957	24682.623756969046	2
0	25959	24683.022386744612	3
0	25960	24683.240782661395	2
0	25963	24685.182598148318	1
0	25966	24686.713899128543	0
0	26027	24774.061120102039	1
0	26028	24774.140092479566	0
0	26032	24774.398914141071	1
0	26033	24775.906595650816	0
0	26037	24776.454275299337	1
0	26038	24777.372844325879	0
0	26042	24777.421112599939	1
0	26043	24778.869633338728	0
0	26060	24819.488140439589	1
0	26062	24820.616724927591	2
0	26063	24821.194297240322	1
0	26067	24821.78011001336	2
0	26068	24822.796846585182	1
0	26072	24823.366641341888	2
0	26073	24824.72142788509	1
0	26076	24826.500236956608	0
0	26080	24827.251505285764	1
0	26081	24827.81660657676	0
0	26095	24847.629461226758	1
0	26096	24847.968204287245	0
0	26100	24848.873428293943	1
0	26101	24849.39977058339	0
0	26105	24849.57547684463	1
0	26106	24851.025491459473	0
0	26130	24867.176527184354	1
0	26133	24868.186023574978	0
0	26155	24882.370933812436	1
0	26156	24883.741386806101	0
0	26185	24929.879904033286	1
0	26186	24931.316450678593	0
0	26195	24935.158900660909	1
0	26196	24936.464576289537	0
0	26205	24947.269404375852	1
0	26206	24948.13083561295	0
0	26210	24948.258055921365	1
0	26211	24949.662521127698	0
0	26235	24969.294492824539	1
0	26236	24970.041060332051	0
0	26245	24974.255381549879	1
0	26246	24974.309589178924	0
0	26285	24997.843532857238	1
0	26286	24998.683932343622	0
0	26300	25013.743602242797	1
0	26301	25014.33264085287	0
0	26350	25067.169063799811	1
0	26351	25067.43451460715	0
0	26365	25098.689424865388	1
0	26366	25098.721162238059	0
0	26400	25128.572791682634	1
0	26402	25128.69134944815	2
0	26403	25129.814252895746	1
0	26406	25131.125051502209	0
0	26415	25133.929570810489	1
0	26416	25134.668470691029	0
0	26450	25205.247684745529	1
0	26451	25206.511402951026	0
0	26455	25207.785870257631	1
0	26456	25208.488073357971	0
0	26470	25215.616663635194	1
0	26472	25215.902913347855	2
0	26473	25216.251825707555	1
0	26476	25218.042744290233	0
0	26515	25241.550438601665	1
0	26518	25242.808049757445	0
0	26575	25312.322783368898	1
0	26576	25312.757366844008	0
0	26595	25341.947210547534	1
0	26596	25342.04169321832	0
0	26620	25355.333073709253	1
0	26622	25356.110746043272	2
0	26623	25356.811108044925	1
0	26627	25357.968248339887	2
0	26628	25358.37946665326	1
0	26631	25359.660212779807	0
0	26665	25381.742479451088	1
0	26666	25382.288560204416	0
0	26685	25391.520175122458	1
0	26686	25392.467003068567	0
0	26705	25404.400344214881	1
0	26706	25404.780393402609	0
0	26710	25405.297739065641	1
0	26711	25406.719666684377	0
0	26715	25406.921288873055	1
0	26716	25407.969346124451	0
0	26730	25416.738916526882	1
0	26731	25417.644916033723	0
0	26775	25481.437647073139	1
0	26776	25481.504309899896	0
0	26780	25481.954623423114	1
0	26781	25483.116042704671	0
0	26795	25498.114392877696	1
0	26796	25499.122018974946	0
0	26815	25515.714167475931	1
0	26816	25515.948914743118	0
0	26820	25517.042674376424	1
0	26821	25517.492712389022	0
0	26830	25525.976466359911	1
0	26831	25527.541810069345	0
0	26840	25535.543012019532	1
0	26842	25536.53631231724	2
0	26845	25536.890532182983	1
0	26848	25538.737634802877	0
0	26852	25539.15195669485	1
0	26854	25539.519757316386	2
0	26855	25540.688403254083	1
0	26858	25542.387779660976	0
0	26945	25659.924411581414	1
0	26946	25661.497792421601	0
0	26970	25690.124592345641	1
0	26971	25690.673759719689	0
0	26980	25695.946480254292	1
0	26981	25696.312823457426	0
0	26990	25701.095210021566	1
0	26991	25701.263848957297	0
0	27015	25724.893707644134	1
0	27016	25726.198383042623	0
0	27020	25726.316306931282	1
0	27021	25727.991119598073	0
0	27035	25739.221932028108	1
0	27036	25739.795655722713	0
0	27045	25741.813518574087	1
0	27046	25743.133098604327	0
0	27105	25829.784336953715	1
0	27106	25830.804922580077	0
0	27220	25905.003894506047	1
0	27221	25906.211214326893	0
0	27225	25906.233842700765	1
0	27226	25907.595168745157	0
0	27230	25908.155574232214	1
0	27232	25909.006827171384	2
0	27233	25909.469119835284	1
0	27237	25909.589310556384	2
0	27238	25911.061621625547	1
0	27241	25912.669932863314	0
0	27250	25915.938829245878	1
0	27252	25916.479627928111	2
0	27253	25916.766612504555	1
0	27257	25917.271717897218	2
0	27259	25917.349094859195	3
0	27261	25918.00681338287	4
0	27262	25918.665358680246	3
0	27265	25920.02876287358	2
0	27268	25921.724231398237	1
0	27271	25922.948177373168	0
0	27280	25924.691387531883	1
0	27281	25925.671885330734	0
0	27285	25925.876472738708	1
0	27286	25927.437676885297	0
0	27295	25942.459850544249	1
0	27297	25942.946484180317	2
0	27298	25943.22039005962	1
0	27301	25944.462135101303	0
0	27335	25996.918671486162	1
0	27336	25997.487537842846	0
0	27465	26196.804263473419	1
0	27466	26197.140274494068	0
0	27490	26224.704618878079	1
0	27491	26225.523882072533	0
0	27495	26226.791279361452	1
0	27496	26226.822049631479	0
0	27560	26285.716052068148	1
0	27561	26286.966506791613	0
0	27570	26289.208938038519	1
0	27571	26290.089388046542	0
0	27610	26357.7824485471	1
0	27611	26358.528141823498	0
0	27615	26358.629582881156	1
0	27616	26360.349261961406	0
0	27620	26361.792522224437	1
0	27621	26361.810708101926	0
0	27625	26362.897280747502	1
0	27626	26363.473431560484	0
0	27630	26363.66576457217	1
0	27631	26365.288174207595	0
0	27670	26392.902066752362	1
0	27671	26393.899451884268	0
0	27680	26397.64061881273	1
0	27681	26398.388370908572	0
0	27685	26399.846351911061	1
0	27686	26399.997731875776	0
0	27690	26401.187364924593	1
0	27692	26401.230446189904	2
0	27693	26401.252336679174	1
0	27697	26401.474473258878	2
0	27699	26401.586662727391	3
0	27700	26403.206214698924	2
0	27703	26404.733651916644	1
0	27707	26405.177527206043	2
0	27709	26405.31057466415	3
0	27710	26406.049254613331	2
0	27714	26407.817984153587	3
0	27715	26407.852609030864	2
0	27719	26407.915185856405	3
0	27721	26408.442927130859	4
0	27722	26409.170112614109	3
0	27725	26410.749586982055	2
0	27728	26412.016191009207	1
0	27731	26413.300101480035	0
0	27735	26413.344373545835	1
0	27737	26413.99129145661	2
0	27739	26414.215975093372	3
0	27740	26414.934591326823	2
0	27744	26416.214952444835	3
0	27745	26416.71558027487	2
0	27748	26417.995989821625	1
0	27752	26418.466294338825	2
0	27753	26419.48935441557	1
0	27757	26419.538253565937	2
0	27758	26421.171001891379	1
0	27762	26422.518338592992	2
0	27763	26422.835767882463	1
0	27766	26424.624066775065	0
0	27780	26439.327138351491	1
0	27781	26439.615610650216	0
0	27820	26469.214940274252	1
0	27821	26470.803110119728	0
0	27880	26525.295157741948	1
0	27881	26526.193055332639	0
0	27885	26527.033949912437	1
0	27886	26527.493474350498	0
0	27895	26531.164110963186	1
0	27896	26532.347743716567	0
0	27920	26541.830271649184	1
0	27921	26542.793156380896	0
0	27930	26554.10243831375	1
0	27931	26554.560544974757	0
0	27935	26555.69077412812	1
0	27936	26556.165024239784	0
0	27955	26570.766655683227	1
0	27956	26571.595316317983	0
0	27960	26572.164778975627	1
0	27961	26573.059778603472	0
0	28010	26632.979539016953	1
0	28012	26633.313931991796	2
0	28013	26634.011973518911	1
0	28016	26635.382998257908	0
0	28020	26636.4818338074	1
0	28021	26637.189907928961	0
0	28030	26640.01325922796	1
0	28031	26641.452706800857	0
0	28060	26675.653128148781	1
0	28062	26675.913378727622	2
0	28063	26676.75731013079	1
0	28066	26678.461346390814	0
0	28070	26678.783210630484	1
0	28074	26679.966010983015	2
0	28075	26680.207135858171	1
0	28078	26682.178968313493	0
0	28082	26682.185268401817	1
0	28083	26684.083750536077	0
0	28087	26684.453654967973	1
0	28089	26684.687604701179	2
0	28090	26685.951623629377	1
0	28093	26687.840745370992	0
0	28097	26688.616320458175	1
0	28098	26689.779870329954	0
0	28105	26692.096035422225	1
0	28106	26692.730034854047	0
0	28140	26719.723477893257	1
0	28141	26720.569014165821	0
0	28190	26770.810041152758	1
0	28191	26771.272520510733	0
0	28205	26778.752508705007	1
0	28206	26778.922747113558	0
0	28225	26789.4909730584	1
0	28226	26790.458532102444	0
0	28240	26801.203177010107	1
0	28241	26801.654939559236	0
0	28290	26888.433965596187	1
0	28291	26889.345423592287	0
0	28310	26906.737029571277	1
0	28312	26906.907716174361	2
0	28313	26907.552791841167	1
0	28316	26908.877312155279	0
0	28320	26909.590379291917	1
0	28321	26910.225232026751	0
0	28325	26910.616918026992	1
0	28326	26912.142689447689	0
0	28335	26939.136546105322	1
0	28336	26939.903132376015	0
0	28370	26997.155619873517	1
0	28372	26997.230565750562	2
0	28373	26998.544172048682	1
0	28376	26999.942791699918	0
0	28380	27000.158451176132	1
0	28382	27000.309881750369	2
0	28383	27001.466501095446	1
0	28386	27003.031055306012	0
0	28405	27019.589863698746	1
0	28407	27019.934614687655	2
0	28408	27020.497566851582	1
0	28411	27022.013904972728	0
0	28415	27022.140654138756	1
0	28417	27023.043477074906	2
0	28418	27023.45936303528	1
0	28421	27025.265083295088	0
0	28465	27092.488608943729	1
0	28466	27093.889180985715	0
0	28475	27096.086579838403	1
0	28476	27096.441939962718	0
0	28485	27098.196635877221	1
0	28486	27099.135416712488	0
0	28490	27099.916084725979	1
0	28491	27100.441365706983	0
0	28495	27101.755673181626	1
0	28496	27101.796520078058	0
0	28510	27115.648779702564	1
0	28511	27116.707486651151	0
0	28585	27247.960384988511	1
0	28586	27249.238320841358	0
0	28605	27272.005365642448	1
0	28606	27272.280888064578	0
0	28620	27281.457372407878	1
0	28621	27281.463490662578	0
0	28645	27299.690849541435	1
0	28646	27300.498762034787	0
0	28650	27300.654298432395	1
0	28651	27302.001126679009	0
0	28660	27304.968776990301	1
0	28661	27306.649838928902	0
0	28680	27334.2195335839	1
0	28682	27335.217142610113	2
0	28683	27335.803122688817	1
0	28686	27337.523076033952	0
0	28690	27338.729997727596	1
0	28691	27339.341233701246	0
0	28700	27341.934382771965	1
0	28701	27342.443271906475	0
0	28705	27342.464771464928	1
0	28707	27343.371383336049	2
0	28709	27344.243960031032	3
0	28710	27344.270153217191	2
0	28714	27345.385276683157	3
0	28715	27346.044500095571	2
0	28719	27346.305410316907	3
0	28720	27347.24544442481	2
0	28723	27349.230110334592	1
0	28728	27351.221839953015	0
0	28740	27358.496448624684	1
0	28741	27358.932673575678	0
0	28765	27373.28484754849	1
0	28766	27373.675185068115	0
0	28795	27389.730015135186	1
0	28797	27390.818873985679	2
0	28798	27391.522504062715	1
0	28801	27393.224813588846	0
0	28815	27424.9607941994	1
0	28816	27425.528415923063	0
0	28840	27438.54019752406	1
0	28841	27439.376114946374	0
0	28920	27508.214115846903	1
0	28921	27509.190259162521	0
0	28930	27510.95800437916	1
0	28931	27512.237965957632	0
0	28935	27513.021164589429	1
0	28936	27513.836378849854	0
0	28985	27586.105519995202	1
0	28987	27586.271569454173	2
0	28988	27587.219695069498	1
0	28991	27588.856946758969	0
0	29015	27640.681292655743	1
0	29016	27641.793749911941	0
0	29030	27646.21073063347	1
0	29031	27647.815388268525	0
0	29050	27656.549376737544	1
0	29051	27656.797902199713	0
0	29060	27662.422615488753	1
0	29061	27662.62215621341	0
0	29110	27715.822206067603	1
0	29111	27717.335236232101	0
0	29120	27721.93619835758	1
0	29121	27722.991094347347	0
0	29130	27725.034425386869	1
0	29131	27726.582367481972	0
0	29140	27741.941549002814	1
0	29141	27743.173271693486	0
0	29145	27744.845021464088	1
0	29146	27744.868881388392	0
0	29150	27744.973366823199	1
0	29151	27746.690424532082	0
0	29200	27814.424131096815	1
0	29202	27814.621896901547	2
0	29203	27815.951096478735	1
0	29209	27816.989254125427	2
0	29210	27817.888204522316	1
0	29214	27818.069610991508	2
0	29215	27819.647202847783	1
0	29218	27821.304199010205	0
0	29222	27821.401079369191	1
0	29223	27823.163506274369	0
0	29227	27824.518158474296	1
0	29228	27824.547408304062	0
0	29235	27826.728780626593	1
0	29236	27827.585915558111	0
0	29265	27851.619888581068	1
0	29266	27852.187103984454	0
0	29305	27879.964046973144	1
0	29306	27881.150807678552	0
0	29340	27912.135372907836	1
0	29341	27912.736579663145	0
0	29350	27914.678887744778	1
0	29351	27916.203499478774	0
0	29380	27949.437378547618	1
0	29381	27950.586654775136	0
0	29400	27971.43673542875	1
0	29401	27972.577441491395	0
0	29550	28161.04429408115	1
0	29552	28161.64995317064	2
0	29553	28162.38445622306	1
0	29556	28163.76817071363	0
0	29585	28200.810669075923	1
0	29586	28201.748777761461	0
0	29600	28206.452268964119	1
0	29601	28206.547180383507	0
0	29660	28280.604490013662	1
0	29661	28281.504009458756	0
0	29670	28287.167691993855	1
0	29671	28288.274163545029	0
0	29680	28295.597961364794	1
0	29681	28295.599884780936	0
0	29730	28376.423657184975	1
0	29731	28377.71551701605	0
0	29750	28386.494495342245	1
0	29751	28387.92269112522	0
0	29775	28415.811715899815	1
0	29776	28416.49631873136	0
0	29795	28437.631676431835	1
0	29797	28437.706065034525	2
0	29798	28438.675083783702	1
0	29801	28440.22202259066	0
0	29810	28445.926690268505	1
0	29811	28446.200606981786	0
0	29840	28468.139989981962	1
0	29841	28468.462451141568	0
0	29850	28471.934492456216	1
0	29851	28471.982991734098	0
0	29870	28496.117045677072	1
0	29871	28497.498588543977	0
0	29910	28529.715575042641	1
0	29913	28531.154184472232	0
0	29930	28548.677318757101	1
0	29931	28550.002564905243	0
0	29950	28577.691755319429	1
0	29951	28578.248599899162	0
0	30020	28655.280628947722	1
0	30022	28656.230460914212	2
0	30023	28656.893887448822	1
0	30027	28656.935956785325	2
0	30028	28658.518958621611	1
0	30032	28658.643834650034	2
0	30033	28659.731718611484	1
0	30036	28661.452929538441	0
0	30050	28676.88028826106	1
0	30051	28677.855037891902	0
0	30080	28693.447298565017	1
0	30082	28694.290797135108	2
0	30083	28694.395268320406	1
0	30086	28695.738503846081	0
0	30105	28712.526385170093	1
0	30106	28712.978256074399	0
0	30125	28739.677475107297	1
0	30127	28740.286689573612	2
0	30128	28740.619680558097	1
0	30131	28742.491128601086	0
0	30140	28756.177470183067	1
0	30141	28756.510142755519	0
0	30145	28756.970790460164	1
0	30146	28757.957995053205	0
0	30160	28764.613171198237	1
0	30161	28765.594916740494	0
0	30185	28785.380429624493	1
0	30186	28786.609463829212	0
0	30190	28786.942544723639	1
0	30191	28788.419840229899	0
0	30195	28789.808999616124	1
0	30196	28790.179596935623	0
0	30200	28791.148690365473	1
0	30201	28792.055176277869	0
0	30220	28816.79611036283	1
0	30221	28817.691620057041	0
0	30225	28818.173690213883	1
0	30226	28819.606434533524	0
0	30240	28836.696852857342	1
0	30241	28837.046773874993	0
0	30245	28837.801008490346	1
0	30246	28838.519711026969	0
0	30255	28841.133032868393	1
0	30256	28842.844266257393	0
0	30290	28871.536304968514	1
0	30293	28872.397238715892	0
0	30305	28876.357204412585	1
0	30306	28878.030137851936	0
0	30320	28881.087834322852	1
0	30321	28882.562378632427	0
0	30395	28977.220093602007	1
0	30396	28978.299223142951	0
0	30415	29020.644260665149	1
0	30416	29021.30126734258	0
0	30435	29030.641310471666	1
0	30436	29031.039740658817	0
0	30460	29057.177460597756	1
0	30461	29057.780756370222	0
0	30470	29064.247363862084	1
0	30471	29065.582143609417	0
0	30490	29085.057000799286	1
0	30491	29085.444069146151	0
0	30510	29102.483908045209	1
0	30511	29102.952127461376	0
0	30530	29120.553496338124	1
0	30531	29122.250721305764	0
0	30550	29139.834438085139	1
0	30551	29141.033253887342	0
0	30570	29152.789919665101	1
0	30571	29153.562306128586	0
0	30575	29153.920173479003	1
0	30576	29155.422216436038	0
0	30600	29240.869668827176	1
0	30601	29242.610538784117	0
0	30610	29244.09952004372	1
0	30611	29245.588158655987	0
0	30620	29256.107214239286	1
0	30621	29256.681007916724	0
0	30630	29266.559332274804	1
0	30631	29266.600933563293	0
0	30635	29267.555123936643	1
0	30636	29268.251172248789	0
0	30685	29340.720913319251	1
0	30686	29341.126786958344	0
0	30720	29385.520048132468	1
0	30721	29386.322387246104	0
0	30735	29397.905723461616	1
0	30737	29398.581876688836	2
0	30738	29399.062933570918	1
0	30742	29400.316174816897	2
0	30743	29400.584240028475	1
0	30747	29401.685758801433	2
0	30748	29401.905069740143	1
0	30752	29402.584952709312	2
0	30753	29403.177229979474	1
0	30756	29405.122551613886	0
0	30765	29410.046845183102	1
0	30766	29410.689994476838	0
0	30775	29415.727887182757	1
0	30776	29417.201165478539	0
0	30807	29445.950930526329	1
0	30808	29446.926908349424	0
0	30840	29474.405278618604	1
0	30841	29474.669498495128	0
0	30845	29474.66976475824	1
0	30846	29476.406844774563	0
0	30890	29506.44482354824	1
0	30891	29507.230006261739	0
0	30905	29525.796681497352	1
0	30906	29526.011887005198	0
0	30910	29526.484085868599	1
0	30911	29527.984359239827	0
0	30915	29528.614895534591	1
0	30916	29529.97021627337	0
0	30940	29542.114127850836	1
0	30942	29542.185224254134	2
0	30943	29543.424665909281	1
0	30947	29544.525986160844	2
0	30948	29545.061592859609	1
0	30952	29545.23357039514	2
0	30953	29546.626462697072	1
0	30957	29547.826381393594	2
0	30960	29548.296907807721	1
0	30964	29549.166671617856	2
0	30965	29550.097693640201	1
0	30970	29551.798708927839	0
0	30985	29558.668841186225	1
0	30986	29558.865913956622	0
0	30990	29559.782444202978	1
0	30991	29560.554816342341	0
0	30995	29560.710445974801	1
0	30997	29562.133177972822	2
0	30998	29562.419862713861	1
0	31002	29563.881793474181	2
0	31003	29564.016709471131	1
0	31006	29565.361739166091	0
0	31010	29565.404219359498	1
0	31012	29566.881033098271	2
0	31013	29566.932767987634	1
0	31016	29568.640544573973	0
0	31030	29574.418688361578	1
0	31031	29576.024656314716	0
0	31050	29581.165780377126	1
0	31051	29582.629187965608	0
0	31085	29599.387238964289	1
0	31086	29600.376935387981	0
0	31095	29611.326123197797	1
0	31097	29611.409601384268	2
0	31098	29611.425745306124	1
0	31102	29612.199886595047	2
0	31103	29612.924454102811	1
0	31107	29613.360972362315	2
0	31109	29613.989465934281	3
0	31110	29614.339047222172	2
0	31113	29615.813629853127	1
0	31116	29617.684514973087	0
0	31130	29622.310707210754	1
0	31134	29622.378109257919	2
0	31137	29623.225280689968	1
0	31141	29623.49349462133	2
0	31143	29623.615239169459	3
0	31144	29625.073734717963	2
0	31147	29626.901497672273	1
0	31150	29628.355504152885	0
0	31160	29632.548761994908	1
0	31161	29633.277089706583	0
0	31170	29634.851769331161	1
0	31171	29636.376054996027	0
0	31180	29648.290911023855	1
0	31182	29648.690339861219	2
0	31183	29649.576828095107	1
0	31186	29650.944028291269	0
0	31205	29664.948425068795	1
0	31207	29665.606051431121	2
0	31208	29666.028660016672	1
0	31212	29667.18167736241	2
0	31213	29667.351721215227	1
0	31217	29668.388983647712	2
0	31218	29668.582060432786	1
0	31221	29670.439104084277	0
0	31240	29680.985171009988	1
0	31241	29681.300293832827	0
0	31280	29726.210558275073	1
0	31281	29727.599422524199	0
0	31290	29731.913891161921	1
0	31292	29732.756091579247	2
0	31293	29733.129548808989	1
0	31296	29734.828916882967	0
0	31300	29735.039716844837	1
0	31302	29735.342584688802	2
0	31303	29736.46018455593	1
0	31308	29738.072263527905	0
0	31312	29739.50914748704	1
0	31313	29740.047231110243	0
0	31350	29759.303690980508	1
0	31351	29759.320973010421	0
0	31355	29759.765587946764	1
0	31357	29759.825058085108	2
0	31358	29760.720596458823	1
0	31361	29762.221734790378	0
0	31365	29762.831473683117	1
0	31366	29763.531918178373	0
0	31385	29794.032034562392	1
0	31386	29794.502823087579	0
0	31395	29796.082073798453	1
0	31396	29797.002103762148	0
0	31420	29831.776744425579	1
0	31421	29833.189906525907	0
0	31430	29844.49547248054	1
0	31431	29845.663701533387	0
0	31445	29851.55619822778	1
0	31446	29853.099926331842	0
0	31475	29908.336087625168	1
0	31476	29908.467298312342	0
0	31480	29909.218254381298	1
0	31481	29910.113158321796	0
0	31485	29910.45466071201	1
0	31486	29911.984718172481	0
0	31495	29919.54566661117	1
0	31496	29920.237511757298	0
0	31505	29923.402461252189	1
0	31506	29923.882718032756	0
0	31545	29960.92336939269	1
0	31546	29961.348188609002	0
0	31560	29968.013855619798	1
0	31561	29969.273278525125	0
1	10480	10003.751119297052	1
1	10481	10005.644335647152	0
1	10840	10435.687290198403	1
1	10841	10436.112360393299	0
1	13960	13796.193239856283	1
1	13961	13797.06346868295	0
1	15162	14878.413961433751	1
1	15166	14882.022667010111	0
1	15170	14883.498030538467	1
1	15171	14884.138756374507	0
1	15825	15451.629986206151	1
1	15826	15452.983105694328	0
1	15835	15456.147225724731	1
1	15836	15458.230358748571	0
1	17550	17007.856792174984	1
1	17555	17010.38799129121	2
1	17556	17011.193912644013	1
1	17569	17014.845314387904	0
1	18412	17675.730832072437	1
1	18414	17675.840983205529	0
1	18505	17737.669079915005	1
1	18509	17738.145871409203	0
1	18977	18222.798453800995	1
1	18979	18223.459039159218	0
1	18982	18224.034324937556	1
1	18984	18224.11995428569	0
1	19790	18886.839960258443	1
1	19795	18889.103176454653	2
1	19796	18891.084163575597	1
1	19799	18891.353437358628	0
1	20115	19292.50023362082	1
1	20116	19295.509498907348	0
1	20357	19452.727064936671	1
1	20361	19453.68325832959	0
1	20845	19844.467674676746	1
1	20846	19846.736843913327	0
1	21145	20160.864828023607	1
1	21146	20161.681679910751	0
1	21765	20754.451453975881	1
1	21766	20754.748517821461	0
1	23747	22739.363700093635	1
1	23749	22739.471502866548	0
1	24125	23044.868140617565	1
1	24126	23045.130031942253	0
1	25187	23923.392960395558	1
1	25189	23924.948624116531	0
1	25419	24216.548796555978	1
1	25421	24217.224441606812	0
1	25657	24361.120130605868	1
1	25659	24361.356020501595	0
1	27732	26413.300101480035	1
1	27734	26413.344373545835	0
1	28084	26684.083750536077	1
1	28086	26684.453654967973	0
1	28377	26999.942791699918	1
1	28379	27000.158451176132	0
1	30425	29025.37424591154	1
1	30426	29026.50958768942	0
1	30430	29028.428311941145	1
1	30431	29029.197106538792	0
2	10489	10007.361293651202	7.030999094045
2	10497	10011.001987014563	9.672887819141
2	10502	10012.614041628541	6.046411229807
2	10512	10015.746121412415	1.84570081234
2	10515	10016.99665860058	5.582948863934
2	10525	10026.907692750119	1.619933817908
2	10532	10047.32099344324	1.464165812917
2	10542	10052.738419254448	5.616043211714
2	10560	10079.176995875256	1.525281226635
2	10565	10081.969527199075	1.958148678578
2	10572	10086.849793350895	1.213480113819
2	10575	10088.591681454343	2.495190607308
2	10580	10093.596786508168	1.370290387981
2	10585	10110.612306304496	1.364644583315
2	10590	10121.705140690397	1.494240162522
2	10595	10143.429918225763	1.866170908324
2	10605	10147.383138999029	1.453863788955
2	10615	10153.174375411026	1.645136303455
2	10620	10156.77168771036	1.655939351209
2	10630	10167.894038809963	1.771779861674
2	10637	10177.606458608209	1.821784280427
2	10645	10181.339455682661	1.488719873503
2	10650	10185.60609077195	1.882574948482
2	10662	10197.32978920716	4.014712169544
2	10675	10206.698873370929	1.812518124282
2	10680	10229.535929760525	1.518170692027
2	10687	10241.181556305415	1.952175924741
2	10700	10280.667987483849	1.93612802662
2	10705	10317.502346521829	1.577569428273
2	10715	10328.101198636554	2.08983492002
2	10720	10330.611116254767	5.747725765844
2	10725	10333.660429507737	1.952359267324
2	10735	10339.923084789724	3.969636949968
2	10744	10342.63148459664	1.622659722529
2	10755	10346.87477329562	5.058362496652
2	10760	10350.628422848938	1.498370033316
2	10770	10357.492984078541	4.973514067275
2	10775	10378.597868093087	1.280928827822
2	10799	10412.722565125797	5.068674486556
2	10804	10414.587357765745	4.741695341512
2	10807	10416.573735876131	5.917643668819
2	10810	10417.847990938957	4.813582108192
2	10817	10427.576974203866	18.604746895403
2	10830	10432.604249167889	4.182267020877
2	10845	10437.723590237504	4.757477927949
2	10855	10443.51402620727	10.252013135844
2	10870	10460.476788241019	1.83793007154
2	10875	10465.900334005545	1.27441393286
2	10884	10471.511341120845	1.262847352214
2	10887	10473.163422086818	2.640940353798
2	10890	10475.07895280773	4.056724604066
2	10895	10481.626373578631	1.436951192282
2	10905	10486.284181638473	1.463546009362
2	10910	10490.384851617462	1.218459008262
2	10915	10499.777365551867	1.85506200362
2	10920	10503.459917293757	1.557876548544
2	10925	10511.242931316066	1.913661122322
2	10930	10518.342476588531	1.826023344137
2	10940	10549.832826885999	3.132496109971
2	10945	10556.355042542941	1.415253927
2	10954	10563.7879615146	1.333395374008
2	10957	10565.223237326861	1.801874064391
2	10960	10566.431205085785	2.946807165292
2	10967	10577.005408260088	1.373699513823
2	10970	10578.652838345665	2.808650243715
2	10980	10597.940228327322	3.345896254981
2	10985	10601.114989310345	1.433978144266
2	10990	10610.908004490228	1.546781755984
2	10995	10619.001240322107	1.89804084599
2	11015	10643.349362226572	5.665733134655
2	11025	10658.898269086702	1.591650469601
2	11030	10679.987168792825	1.497439754196
2	11035	10684.127103765429	1.544239890575
2	11040	10690.860570164357	1.896896938235
2	11045	10695.137073553286	1.54295571968
2	11055	10702.158360815308	1.204754961841
2	11065	10707.67549578829	9.609316015062
2	11070	10725.233074445988	1.630254022591
2	11077	10728.945672447009	1.893665434979
2	11080	10730.234119405745	2.992694296341
2	11085	10735.785881654906	1.594710338116
2	11090	10737.741540065967	1.849585901015
2	11095	10739.425967019441	1.620361299627
2	11100	10766.325963208903	1.954078603536
2	11117	10786.53058912727	2.806475086305
2	11125	10789.625547417356	7.587791770207
2	11130	10793.138078810861	6.691625101012
2	11140	10801.475153006759	1.698649002425
2	11145	10807.29153417779	1.551558200642
2	11150	10812.781553067223	1.657456045598
2	11155	10831.770788087985	1.267042774707
2	11162	10836.85504312692	1.387845899723
2	11165	10838.344643164331	2.331074194381
2	11170	10850.040086171233	1.356250295043
2	11177	10852.157093588203	1.950429771468
2	11180	10853.748665878489	2.171134475203
2	11185	10859.353999133985	1.976902345568
2	11190	10868.086375712239	1.693354590982
2	11195	10872.084459779283	1.37025285475
2	11200	10886.028192025339	1.919391716644
2	11205	10891.885361634132	1.27395246271
2	11212	10903.493663431643	1.271073316969
2	11220	10910.533245042029	1.586782523431
2	11225	10913.13616646226	10.45353046733
2	11230	10916.476098431302	1.745677591488
2	11242	10936.600525854484	1.822598616779
2	11245	10938.039420728714	1.901908198239
2	11255	10944.795420652445	1.915937676959
2	11260	10949.409394009394	1.891220413148
2	11265	10952.942843051631	1.864864543639
2	11274	10958.468280562563	1.550188888051
2	11279	10959.864455136648	1.428865843564
2	11282	10961.826121254815	2.895959308761
2	11295	10966.702032712402	1.699754889123
2	11305	10973.940850253091	3.482467432636
2	11312	10976.242802958747	1.983501160331
2	11315	10977.847094518875	2.311833948261
2	11320	10981.94156885956	1.462280771136
2	11335	11002.115249023082	1.40770081412
2	11346	11012.373557875271	1.288928665593
2	11349	11013.786130382645	2.401943595275
2	11352	11015.473054468411	3.669717277844
2	11360	11018.96164159492	2.498174799006
2	11377	11030.879705288333	7.579200425525
2	11380	11032.104125643221	1.680708533804
2	11385	11037.42606970958	1.378105841763
2	11395	11043.300183670905	2.602566351322
2	11400	11060.726663270186	1.377424560301
2	11410	11067.388502812801	6.592740553219
2	11425	11089.334093918911	1.51619753819
2	11430	11098.272519689842	1.351348425634
2	11435	11108.008908550618	1.468952217512
2	11440	11109.966292122353	1.823533917964
2	11445	11114.831181723944	1.791765042767
2	11455	11123.712266214049	3.041495315097
2	11467	11145.672496025279	2.919211431782
2	11470	11147.14563193956	2.2676231782
2	11475	11155.537541046937	1.299885380082
2	11480	11160.015481379804	1.31400007233
2	11495	11169.049813822363	2.815897622537
2	11500	11170.686904557611	8.319156206986
2	11520	11192.906356492754	1.319039481506
2	11527	11195.911108991733	1.798648334108
2	11535	11199.506895806173	1.216760617308
2	11540	11201.707743133634	6.704703645458
2	11555	11245.344733903801	6.165577885839
2	11565	11250.818482210203	2.094249050187
2	11570	11254.234471241159	1.490119528957
2	11580	11259.558214501227	2.155915701594
2	11585	11269.534911490151	1.994925442897
2	11592	11277.07590194173	1.256309703737
2	11610	11285.517800159707	6.33351137276
2	11625	11300.02347152624	1.835394226201
2	11630	11301.420902163441	11.577253915314
2	11635	11304.369751250104	1.659885522723
2	11640	11309.186650495164	1.958077030443
2	11650	11323.81550753417	1.384893253073
2	11655	11326.725762611526	1.85578342434
2	11660	11328.217253774522	1.253910234384
2	11665	11339.920222215055	1.583787863515
2	11687	11356.701235497295	10.58927958074
2	11692	11357.937846458628	2.77098315897
2	11702	11363.442606143214	6.517125875657
2	11705	11365.166088435918	2.666387647542
2	11722	11411.872418702616	1.455479667708
2	11732	11418.292070115757	1.288496040367
2	11735	11419.658927166116	1.821602291465
2	11740	11422.818887057065	1.867853225023
2	11745	11429.969436251065	1.704425866157
2	11750	11432.915126448383	1.471813184768
2	11755	11436.800891779664	1.548145187274
2	11770	11454.352412193411	1.887138701603
2	11780	11464.44948455098	1.977287196741
2	11787	11489.653622545799	1.671839370951
2	11790	11491.0356607891	2.299754423385
2	11795	11493.646049319186	1.538010782935
2	11825	11526.297811848866	6.081682369844
2	11840	11533.609436269215	6.701021437547
2	11847	11537.323901591615	1.872199280187
2	11867	11549.284836848341	6.388481977721
[...]
7	29320	27902.16715146953	1.430943993665
7	29342	27912.736579663145	1.689969691634
7	29370	27935.742828542935	1.271840342507
7	29382	27950.586654775136	1.942218996026
7	29395	27969.721996487935	1.951213490404
7	29470	28044.61108401245	1.797164732032
7	29485	28080.253967302871	1.717509470508
7	29520	28128.648749665671	1.208491283655
7	29540	28137.943721421773	1.507223484851
7	29570	28180.429612806996	1.997461904027
7	29575	28184.649088769591	1.917445180193
7	29615	28216.033270941007	1.718796090223
7	29682	28295.599884780936	1.233151416481
7	29727	28375.910979071927	1.639765778184
7	29732	28377.71551701605	1.804537944123
7	29777	28416.49631873136	1.524902103469
7	29830	28461.009910596942	1.844286020286
7	29860	28474.511073444548	3.716373300776
7	29880	28500.565884260121	1.57014876008
7	29920	28535.140407387397	1.997236263566
7	29940	28553.125074846143	1.361358551681
7	29952	28578.248599899162	6.541333698355
7	29970	28601.340804685221	1.329974935204
7	29980	28619.912498405648	1.411742337607
7	30065	28684.168935177032	1.730970846303
7	30187	28786.609463829212	1.546709194034
7	30242	28837.046773874993	3.029440420273
7	30285	28869.073997400544	1.80098678302
7	30322	28882.562378632427	8.199845593678
7	30330	28885.979278155938	1.860035887919
7	30360	28926.397430177824	1.748371153697
7	30385	28965.136584315975	1.955592129752
7	30397	28978.299223142951	1.64571841564
7	30445	29033.487442770307	1.203544347733
7	30480	29077.119238802453	1.201308215223
7	30500	29088.31370504682	1.665303392336
7	30532	29122.250721305764	4.226772763632
7	30590	29185.426595159849	1.254493323714
7	30612	29245.588158655987	1.647327963449
7	30632	29266.600933563293	1.48335804306
7	30645	29288.561807566298	1.50186324399
7	30675	29326.208559384733	1.249743769877
7	30710	29380.194343224812	1.433449686319
7	30722	29386.322387246104	5.826998843813
7	30739	29399.062933570918	1.395822917484
7	30767	29410.689994476838	1.633483791724
7	30790	29432.169178407285	1.28031726256
7	30817	29449.352758271984	1.219831987843
7	30820	29451.320906374968	1.968148102984
7	30885	29494.642117908271	1.272515961528
7	30925	29533.480171807733	1.733371617459
7	30930	29535.774172265923	1.712088942714
7	30977	29554.433425964063	1.433885955065
7	30987	29558.865913956622	4.432487992559
7	31060	29586.234476547717	3.269501045045
7	31075	29594.693197607874	5.261223348884
7	31138	29623.225280689968	1.852673569322
7	31157	29631.337207584603	3.935912039303
7	31162	29633.277089706583	1.93988212198
7	31172	29636.376054996027	1.681971602328
7	31230	29673.217678647653	1.448385786451
7	31265	29709.570286611792	4.208333310213
7	31270	29713.885402979296	1.97350278832
7	31275	29721.232881603366	1.730140099302
7	31320	29743.541861511079	1.804304428026
7	31347	29758.039238641657	1.262384344637
7	31352	29759.320973010421	1.281734368764
7	31397	29797.002103762148	3.111394900521
7	31415	29828.109868369209	1.238950444758
7	31442	29851.507785509357	1.774346058443
7	31447	29853.099926331842	1.592140822485
7	31460	29864.38545036809	1.449003842659
7	31470	29896.267257164256	1.380226992629
7	31477	29908.467298312342	1.526884088665
7	31507	29923.882718032756	1.823714991286
7	31515	29927.133974598024	1.679690214992
7	31535	29953.841588556483	1.997450410761
7	31562	29969.273278525125	1.355221349932
7	31575	29986.592287588593	1.999305120669
8	10540	10051.244893764498	1
8	10541	10052.738419254448	0
8	10635	10177.07992732283	1
8	10636	10177.606458608209	0
8	10660	10197.046006244591	1
8	10661	10197.32978920716	0
8	10665	10198.777898562315	1
8	10666	10199.189746221743	0
8	10685	10240.658507620876	1
8	10686	10241.181556305415	0
8	10742	10342.447991744276	1
8	10746	10344.123828637064	0
8	10815	10426.725063029534	1
8	10816	10427.576974203866	0
8	11270	10958.133433523912	1
8	11281	10961.826121254815	0
8	11344	11011.897611009732	1
8	11351	11015.473054468411	0
8	11590	11276.081542272165	1
8	11591	11277.07590194173	0
8	11720	11411.110073875561	1
8	11721	11411.872418702616	0
8	11800	11505.426941318308	1
8	11801	11505.609008008042	0
8	11805	11506.621525641558	1
8	11806	11507.534471508102	0
8	11830	11528.347639770335	1
8	11831	11528.812972171888	0
8	11845	11537.115224902387	1
8	11846	11537.323901591615	0
8	11855	11543.18560861234	1
8	11856	11544.640784354443	0
8	11985	11685.014236357188	1
8	11986	11686.571128963091	0
8	12050	11751.14133124808	1
8	12056	11753.743005874069	0
8	12072	11764.512815239523	1
8	12081	11769.849956618484	0
8	12190	11904.988114855638	1
8	12196	11907.698441446491	0
8	12450	12181.537182543894	1
8	12451	12181.572446516602	0
8	12460	12186.440875991715	1
8	12466	12188.628504801413	0
8	12535	12283.356183425049	1
8	12536	12284.471252363493	0
8	12545	12286.6373888665	1
8	12546	12287.508464195897	0
8	12555	12290.077134393045	1
8	12556	12291.048762790127	0
8	12630	12357.579815637145	1
8	12636	12360.631723998955	0
8	12660	12367.24009681064	1
8	12669	12368.269916629728	2
8	12673	12370.605731229393	1
8	12676	12371.969844733646	0
8	12847	12550.333197101455	1
8	12851	12552.564616283811	0
8	13040	12782.817389952409	1
8	13041	12784.077112560877	0
8	13185	12882.675458772834	1
8	13186	12884.343019286806	0
8	13290	12981.016981720436	1
8	13291	12981.507566762881	0
8	13405	13186.233067627639	1
8	13406	13186.402141789094	0
8	13520	13333.760467099566	1
8	13521	13335.07436229273	0
8	13555	13359.465696321273	1
8	13561	13362.872070029833	0
8	13582	13375.50770109986	1
8	13589	13377.455363884444	2
8	13593	13379.08748431965	1
8	13601	13382.325534745634	0
8	13700	13529.596593233015	1
8	13701	13529.900440465334	0
8	13720	13536.43852249511	1
8	13721	13537.760641085274	0
8	13730	13546.347953779782	1
8	13731	13546.506570624678	0
8	13860	13669.715798426857	1
8	13861	13670.048933531165	0
8	13890	13706.242770116757	1
8	13891	13706.749190143665	0
8	14030	13855.754769108951	1
8	14031	13856.295800787304	0
8	14080	13901.785088258652	1
8	14087	13902.81319087748	2
8	14088	13903.965109251042	1
8	14091	13905.832469209445	0
8	14120	13922.624873662389	1
8	14121	13923.409727015078	0
8	14132	13925.83669873547	1
8	14137	13928.304634670449	2
8	14148	13932.868540765601	1
8	14156	13936.24007572576	0
8	14225	14024.000720973236	1
8	14226	14024.040355862822	0
8	14237	14026.964735944841	1
8	14251	14032.603004798811	0
8	14305	14076.746834352156	1
8	14306	14078.516285332877	0
8	14315	14082.659935401345	1
8	14316	14083.287022083027	0
8	14420	14182.632735137957	1
8	14421	14183.815345606714	0
8	14490	14259.490040176418	1
8	14491	14260.91687669851	0
8	14565	14337.628488084168	1
8	14566	14338.320383049346	0
8	14745	14498.228438036115	1
8	14746	14499.512929042675	0
8	14835	14564.096530278828	1
8	14836	14564.568316061712	0
8	14855	14573.432870818482	1
8	14856	14574.424974386899	0
8	14890	14615.895143784226	1
8	14891	14615.959469587691	0
8	14925	14630.776951799692	1
8	14931	14633.582474152143	0
8	15070	14769.37775007745	1
8	15071	14769.699091768294	0
8	15230	14928.92082074906	1
8	15236	14931.000100462794	0
8	15400	15069.429109711907	1
8	15401	15071.141437312308	0
8	15425	15095.040027943996	1
8	15426	15096.371166615916	0
8	15440	15108.401425990733	1
8	15441	15108.609295887557	0
8	15562	15202.11469815428	1
8	15566	15204.340327778584	0
8	15880	15488.246746677017	1
8	15881	15489.470114075082	0
8	15890	15491.883205593836	1
8	15896	15494.290705444628	0
8	15940	15552.853969342478	1
8	15944	15553.499014223811	2
8	15948	15555.985308902354	1
8	15951	15557.220001651921	0
8	16007	15621.261749937482	1
8	16011	15624.032517923121	0
8	16040	15659.041206248231	1
8	16042	15660.533779291837	2
8	16043	15660.539358663285	1
8	16046	15662.367902457254	0
8	16110	15719.145763754451	1
8	16111	15720.16082779395	0
8	16202	15774.308181537464	1
8	16216	15778.87947211771	0
8	16345	15901.613139502138	1
8	16346	15901.998862823486	0
8	16350	15902.89671185994	1
8	16352	15903.485726907188	2
8	16353	15903.557186385631	1
8	16362	15906.599767755715	2
8	16363	15906.889320111662	1
8	16366	15908.74004665596	0
8	16380	15915.028066667456	1
8	16381	15915.204454767032	0
8	16412	15946.760778921361	1
8	16426	15952.85816672342	0
8	16472	15993.250268506734	1
8	16486	15998.39416790893	0
8	16710	16264.460235586079	1
8	16711	16264.741261117778	0
8	16732	16270.001088406751	1
8	16751	16277.340678590036	0
8	16910	16365.438659015889	1
8	16911	16366.074851661524	0
8	17100	16592.42487205454	1
8	17101	16592.705624468831	0
8	17175	16663.729956308916	1
8	17176	16664.419429044953	0
8	17185	16667.474662784211	1
8	17186	16667.756524197912	0
8	17400	16879.327624939009	1
8	17401	16879.861040758339	0
8	17500	16954.765244738936	1
8	17501	16956.293540158592	0
8	17510	16958.308153311597	1
8	17511	16958.749712834976	0
8	17530	16974.051322919435	1
8	17531	16974.817452190201	0
8	17620	17061.703304817592	1
8	17621	17061.790298862506	0
8	17705	17127.228387850095	1
8	17706	17127.847410917252	0
8	17710	17127.916474648744	1
8	17711	17129.553199584938	0
8	17720	17133.055061569789	1
8	17721	17133.169343031535	0
8	17775	17195.193418732929	1
8	17781	17198.10032284392	0
8	17870	17260.596302230452	1
8	17871	17261.049993338995	0
8	17900	17278.011281210365	1
8	17901	17278.268343931976	0
8	17935	17328.046253425871	1
8	17936	17328.128482955831	0
8	18025	17392.076383460621	1
8	18036	17395.506602624017	0
8	18055	17404.069533563897	1
8	18056	17405.668846327769	0
8	18065	17409.762492187635	1
8	18066	17411.344103588812	0
8	18085	17424.497679425719	1
8	18086	17424.814154994948	0
8	18112	17451.927104871547	1
8	18116	17453.738803834268	0
8	18170	17500.103813029395	1
8	18171	17501.03275493037	0
8	18452	17699.608852525442	1
8	18456	17701.420450467429	0
8	18600	17830.473949626934	1
8	18601	17831.417486635229	0
8	18770	18042.405154104627	1
8	18771	18042.535259405243	0
8	18785	18050.028797349616	1
8	18791	18052.371563091581	0
8	18915	18144.117655612472	1
8	18916	18145.452418055182	0
8	19080	18278.857870029619	1
8	19086	18282.431030130881	0
8	19095	18284.807474314258	1
8	19096	18285.817924269027	0
8	19100	18286.112886135135	1
8	19101	18287.097539414576	0
8	19115	18296.041270730232	1
8	19116	18296.259838906723	0
8	19184	18358.187792711829	1
8	19189	18359.888513941845	2
8	19193	18362.666177445011	1
8	19201	18366.016566149437	0
8	19205	18366.657527428158	1
8	19206	18367.514431492158	0
8	19210	18368.342114892274	1
8	19221	18371.928179967322	0
8	19335	18475.46812936324	1
8	19336	18476.29846814268	0
8	19365	18507.354938654608	1
8	19366	18509.102005260209	0
8	19515	18662.48508697284	1
8	19516	18662.783819485786	0
8	19645	18780.654639787141	1
8	19646	18780.980267344593	0
8	19680	18800.883864204264	1
8	19686	18803.215777389565	0
8	19690	18804.002667262264	1
8	19701	18808.025472652399	0
8	19905	19032.81085984202	1
8	19906	19033.520436589308	0
8	20085	19281.74762118944	1
8	20086	19282.845077956137	0
8	20095	19284.720331911362	1
8	20101	19287.530303927367	0
8	20235	19376.271396396645	1
8	20236	19377.694533345092	0
8	20262	19396.30815153649	1
8	20271	19400.630173731781	0
8	20317	19438.7539977085	1
8	20321	19440.971697922086	0
8	20405	19479.580526973664	1
8	20411	19482.729024035093	0
8	20420	19486.206276587282	1
8	20426	19488.959138563984	0
8	20475	19551.96320186492	1
8	20476	19553.739704532697	0
8	20545	19577.009056149012	1
8	20546	19577.530587067401	0
8	20605	19620.938929489531	1
8	20606	19622.176220269952	0
8	20675	19719.583319582242	1
8	20676	19720.964798964944	0
8	20910	19877.233222502075	1
8	20911	19878.69067170706	0
8	21070	20070.940437724285	1
8	21071	20071.064922571669	0
8	21110	20121.982913818783	1
8	21111	20122.264598012104	0
8	21335	20330.744535946686	1
8	21336	20332.30512322947	0
8	21772	20755.681086780966	1
8	21776	20757.720158610597	0
8	21790	20778.225075341578	1
8	21791	20779.338858688662	0
8	21900	20891.635305600929	1
8	21911	20896.499800574475	0
8	22010	21040.717194728768	1
8	22011	21041.712651354857	0
8	22050	21099.725873141906	1
8	22051	21100.239951223847	0
8	22105	21157.202466857792	1
8	22106	21158.410983855816	0
8	22280	21308.104023921453	1
8	22281	21309.471601597849	0
8	22330	21349.78515862667	1
8	22331	21350.362116810745	0
8	22405	21421.323089789261	1
8	22406	21421.425798416045	0
8	22447	21443.4084957886	1
8	22451	21445.78723718058	0
8	22540	21533.261507741915	1
8	22541	21533.58035814064	0
8	22635	21619.653241709652	1
8	22636	21620.465778993613	0
8	22660	21666.721063047661	1
8	22661	21667.428719881743	0
8	22670	21671.517739328933	1
8	22671	21672.704742442566	0
8	22714	21700.979323159474	1
8	22726	21705.289270928985	0
8	22797	21760.288452189447	1
8	22806	21763.670638979475	0
8	22867	21819.145586960875	1
8	22871	21820.737911427481	0
8	23029	21975.649852450684	1
8	23041	21981.246063872194	0
8	23135	22089.930081080258	1
8	23136	22090.506995267839	0
8	23140	22090.803404884026	1
8	23141	22092.008012976357	0
8	23145	22092.377656120921	1
8	23146	22093.624742465512	0
8	23205	22170.341329272722	1
8	23206	22172.134574853073	0
8	23210	22172.222783335565	1
8	23211	22173.432969830188	0
8	23240	22197.970834643442	1
8	23241	22198.296088696634	0
8	23310	22241.328935570144	1
8	23311	22241.966167744088	0
8	23390	22328.517388826134	1
8	23397	22330.265684225917	2
8	23398	22331.375137199546	1
8	23416	22337.013929581541	0
8	23555	22451.175501678062	1
8	23556	22452.34827583983	0
8	23720	22722.054416205947	1
8	23721	22722.401910095259	0
8	23740	22736.653926388071	1
8	23746	22739.363700093635	0
8	23760	22743.194558356403	1
8	23761	22744.47756899272	0
8	23905	22861.864533489489	1
8	23906	22862.930705081376	0
8	23995	22944.523279718863	1
8	23996	22945.060292293413	0
8	24035	22986.784625198973	1
8	24036	22987.750271037092	0
8	24232	23119.989395381319	1
8	24236	23121.855599691195	0
8	24360	23249.980170020584	1
8	24361	23251.466323806091	0
8	24395	23268.69233805111	1
8	24396	23269.498885835672	0
8	24410	23291.169584389057	1
8	24411	23291.868959226502	0
8	24432	23333.627110546142	1
8	24456	23341.906011850767	0
8	24535	23418.344195018929	1
8	24537	23418.838305764811	2
8	24538	23418.96157530639	1
8	24541	23420.773167064783	0
8	24557	23433.163488600658	1
8	24571	23439.119294378926	0
8	24595	23451.810247174574	1
8	24596	23452.708069112634	0
8	24632	23484.353881309007	1
8	24636	23486.370636202569	0
8	24649	23488.285057786225	1
8	24667	23495.045520259155	2
8	24668	23495.14765383097	1
8	24671	23496.513916750053	0
8	24675	23496.685978727636	1
8	24677	23497.070524666845	2
8	24678	23498.39773077591	1
8	24681	23500.36679912618	0
8	24705	23513.932118528801	1
8	24706	23515.397003195391	0
8	24710	23516.11316757203	1
8	24712	23516.538939691985	2
8	24713	23516.638945865401	1
8	24716	23518.257507004359	0
8	24735	23534.011015399972	1
8	24736	23534.351803039116	0
8	24920	23708.414705247326	1
8	24921	23708.67595955953	0
8	24930	23713.619710637613	1
8	24931	23713.711789439496	0
8	24940	23715.80311448879	1
8	24942	23716.653525550931	2
8	24943	23716.954754904974	1
8	24946	23718.875266115125	0
8	25365	24162.769528958057	1
8	25366	24163.536130995447	0
8	25495	24267.517970846763	1
8	25496	24268.755051405618	0
8	25525	24292.197698837223	1
8	25526	24293.223509849089	0
8	25552	24304.275117141923	1
8	25557	24305.82292561985	2
8	25581	24313.763337316804	3
8	25590	24317.680693581557	2
8	25599	24319.793429628768	3
8	25600	24320.560005978166	2
8	25613	24325.581176148213	1
8	25616	24326.975947251401	0
8	25850	24576.359362390101	1
8	25851	24576.485121502652	0
8	26025	24773.537353007452	1
8	26046	24780.868751182535	0
8	26132	24867.849534397737	1
8	26136	24869.938200664617	0
8	26270	24989.022444454419	1
8	26271	24989.426701319086	0
8	26410	25132.721848534008	1
8	26411	25132.72871272571	0
8	26517	25241.751312147998	1
8	26521	25244.254538012335	0
8	26525	25244.564817676941	1
8	26526	25246.163040673213	0
8	26550	25290.357414456348	1
8	26551	25291.715220139827	0
8	26645	25367.097840573447	1
8	26646	25367.9752236063	0
8	26844	25536.686603760904	1
8	26861	25544.113591689697	0
8	26890	25587.484380941209	1
8	26891	25588.555013457949	0
8	27040	25740.933545124046	1
8	27041	25741.333390003426	0
8	27065	25766.815471145274	1
8	27066	25767.888493663531	0
8	27110	25830.876375307084	1
8	27111	25832.659626201085	0
8	27115	25832.824030312365	1
8	27116	25834.430742512374	0
8	27200	25894.910092518411	1
8	27201	25895.918059649656	0
8	27275	25923.219678146158	1
8	27276	25924.350829474387	0
8	27340	25998.706333353926	1
8	27341	25998.932954075603	0
8	27395	26081.069634089749	1
8	27396	26082.888787800917	0
8	27405	26097.512658566189	1
8	27406	26097.78896612793	0
8	27520	26253.479569021194	1
8	27521	26254.295985196727	0
8	27525	26255.707572196734	1
8	27526	26255.715057163323	0
8	27665	26391.684408456835	1
8	27666	26392.674698423049	0
8	27815	26468.15384715874	1
8	27816	26468.977461019186	0
8	27910	26538.197219435985	1
8	27911	26538.690867609746	0
8	28055	26674.677557337004	1
8	28056	26675.480292702623	0
8	28072	26679.601461002243	1
8	28101	26691.305035338894	0
8	28120	26710.592897230686	1
8	28121	26710.721117534521	0
8	28135	26718.511453950218	1
8	28136	26719.240939792702	0
8	28210	26780.567153522136	1
8	28211	26780.738514713945	0
8	28390	27004.322226735267	1
8	28391	27004.559552445935	0
8	28470	27093.959429131532	1
8	28471	27095.219462884839	0
8	28480	27097.421013035163	1
8	28481	27097.803553442161	0
8	28695	27339.425013613967	1
8	28696	27340.967777096467	0
8	28727	27350.115745815699	1
8	28731	27353.015227992634	0
8	28755	27367.332712456286	1
8	28756	27368.912899785708	0
8	28775	27383.41009493552	1
8	28776	27383.759860309679	0
8	28855	27444.829702145219	1
8	28856	27445.271635146863	0
8	28885	27475.821022066921	1
8	28886	27476.789730061332	0
8	28915	27506.115196087422	1
8	28916	27507.411114729939	0
8	28925	27509.54509843055	1
8	28926	27510.592571605554	0
8	29045	27654.408465306677	1
8	29046	27655.413876393152	0
8	29195	27813.364561812011	1
8	29196	27814.287019903284	0
8	29207	27816.611906051655	1
8	29231	27826.019300027635	0
8	29250	27839.682043511574	1
8	29251	27839.782965766498	0
8	29315	27900.009437750527	1
8	29316	27900.736207475865	0
8	29335	27911.011143212188	1
8	29336	27911.046609971511	0
8	29390	27966.696439030732	1
8	29391	27967.770782997531	0
8	29535	28135.153916237709	1
8	29536	28136.436497936922	0
8	29725	28374.845023527444	1
8	29726	28375.910979071927	0
8	29825	28457.66899950251	1
8	29826	28459.165624576656	0
8	29855	28472.861710839148	1
8	29856	28473.207020278412	0
8	29875	28497.771532948631	1
8	29876	28498.995735500041	0
8	29912	28530.516204340317	1
8	29916	28533.143171123831	0
8	29935	28551.614381156366	1
8	29936	28551.763716294462	0
8	29975	28617.193402844727	1
8	29976	28618.500756068041	0
8	30292	28871.597980258852	1
8	30296	28873.861403825288	0
8	30315	28880.495182888247	1
8	30316	28880.996312101708	0
8	30325	28882.865181315691	1
8	30326	28884.119242268019	0
8	30390	28976.371186496	1
8	30391	28976.653504727311	0
8	30440	29031.433749126302	1
8	30441	29032.283898422574	0
8	30495	29086.524060974308	1
8	30496	29086.648401654484	0
8	30605	29243.319969459579	1
8	30606	29243.940830692538	0
8	30705	29378.241099781582	1
8	30706	29378.760893538493	0
8	30730	29396.881384041284	1
8	30731	29397.667110653434	0
8	30805	29444.997315291351	1
8	30811	29448.132926284141	0
8	30815	29448.628152933691	1
8	30816	29449.352758271984	0
8	30959	29548.037302774884	1
8	30969	29551.198788217783	2
8	30973	29552.999540008998	1
8	30976	29554.433425964063	0
8	31045	29579.988559367756	1
8	31046	29581.125588867656	0
8	31055	29582.648320766452	1
8	31056	29584.487707401468	0
8	31065	29589.408857701329	1
8	31066	29589.43197425899	0
8	31120	29618.705765071515	1
8	31122	29618.748035231204	2
8	31123	29619.665732040217	1
8	31126	29621.372607120646	0
8	31132	29622.317815480514	1
8	31136	29623.065283806991	2
8	31153	29630.053378985597	1
8	31156	29631.337207584603	0
8	31165	29634.217641020528	1
8	31166	29634.694083393699	0
8	31225	29670.570758338197	1
8	31226	29671.769292861202	0
8	31307	29736.890170330015	1
8	31316	29741.737557083053	0
8	31340	29756.007411283766	1
8	31342	29756.331339981456	2
8	31343	29756.77685429702	1
8	31346	29758.039238641657	0
8	31390	29795.018305454847	1
8	31391	29795.787444908364	0
8	31440	29849.978060398059	1
8	31441	29851.507785509357	0
8	31455	29862.068541018413	1
8	31456	29862.936446525431	0
8	31530	29951.137475520393	1
8	31531	29951.844138145722	0

