version 2
run Third_exit_2-10-20191114-11:42:53-8990
attr configname Third_exit_2
attr datetime 20191114-11:42:53
attr experiment Third_exit_2
attr inifile omnetpp.ini
attr iterationvars ""
attr iterationvarsf ""
attr measurement ""
attr network ResponseTimeNetwork
attr processid 8990
attr repetition 10
attr replication #10
attr resultdir results
attr runnumber 10
attr seedset 10
param **.Source.interArrivalTime exponential(6s)
param **.jobPriority bernoulli(0.8)
param **.PS.serviceTimeU1 "uniform(1.2s, 2.0s)"
param **.PS.serviceTimeU2 "uniform(2.4s, 2.8s)"
param **.SS1.serviceTime exponential(1.4s)
param **.SS2.serviceTime exponential(2s)
param **.PS.exitProbability bernoulli(0.2)

vector 0 ResponseTimeNetwork.sink lifeTimeU1:vector ETV
attr interpolationmode none
attr title "lifetime of arrived jobs U1, vector"
attr unit s
vector 1 ResponseTimeNetwork.sink totalServiceTimeU1:vector ETV
attr interpolationmode none
attr title "the total time spent  by arrived jobs U1, vector"
attr unit s
vector 2 ResponseTimeNetwork.sink lifeTime:vector ETV
attr interpolationmode none
attr title "lifetime of arrived jobs, vector"
attr unit s
vector 3 ResponseTimeNetwork.sink totalServiceTime:vector ETV
attr interpolationmode none
attr title "the total time spent  by arrived jobs, vector"
attr unit s
vector 4 ResponseTimeNetwork.sink lifeTimeU2:vector ETV
attr interpolationmode none
attr title "lifetime of arrived jobs U2, vector"
attr unit s
vector 5 ResponseTimeNetwork.sink totalServiceTimeU2:vector ETV
attr interpolationmode none
attr title "the total time spent  by arrived jobs U2, vector"
attr unit s
vector 6 ResponseTimeNetwork.QueueU1 queueLength:vector ETV
attr interpolationmode sample-hold
attr title "queue length, vector"
vector 7 ResponseTimeNetwork.QueueU2 queueLength:vector ETV
attr interpolationmode sample-hold
attr title "queue length, vector"
vector 8 ResponseTimeNetwork.SS1 queueLength:vector ETV
attr interpolationmode sample-hold
attr title "queue length, vector"
vector 9 ResponseTimeNetwork.SS2 queueLength:vector ETV
attr interpolationmode sample-hold
attr title "queue length, vector"
0	10615	10000.693516601239	1.901771709137
0	10620	10005.525282236681	1.502204169333
0	10625	10008.421530627945	1.700677782297
0	10630	10010.071706581219	1.598714308999
0	10642	10016.559009185061	1.308968905918
0	10647	10018.375678649545	1.896942049058
0	10655	10058.81167125432	1.784658496082
0	10667	10064.973457192737	4.148150609774
0	10697	10077.608309343585	13.714012937214
0	10706	10079.569315623434	3.027357151648
0	10711	10081.208401362167	2.757767929556
0	10714	10082.900844977365	3.967558803097
0	10717	10084.770561973506	4.063854052786
0	10730	10089.137544026402	2.335931836761
0	10735	10093.267189884946	6.97063367984
0	10742	10096.565146999193	1.331176525541
0	10750	10100.101082135091	4.794161037525
0	10755	10112.746775612951	1.421843751892
0	10760	10117.102861983219	1.47094584126
0	10765	10120.801500819319	1.347185196728
0	10770	10126.309673874892	1.377443069778
0	10777	10128.950134802966	1.930562327616
0	10782	10130.749356201275	3.262527743572
0	10795	10151.241564284424	1.854801449552
0	10805	10162.997767872848	1.728472753987
0	10817	10169.69467685726	1.532699762838
0	10820	10170.999113757913	2.011894792651
0	10825	10177.79884936721	1.63133551646
0	10830	10180.397205827879	1.34459892828
0	10835	10189.980269843774	1.77295316942
0	10840	10192.101472909043	1.2748802552
0	10847	10205.760958777571	1.594534040242
0	10855	10212.359141197681	7.784993411845
0	10860	10223.644190476083	1.317987635173
0	10867	10228.19725956119	1.512154970691
0	10872	10229.778157466681	3.012344663726
0	10875	10231.183853254312	2.076016544631
0	10885	10240.910201438202	1.34364692457
0	10890	10256.148207808151	1.258755397797
0	10895	10263.99022518555	1.74675335791
0	10902	10271.227107054539	1.440443145297
0	10905	10272.85262824817	1.789653858019
0	10912	10286.321443007616	1.557141908258
0	10917	10287.978737941859	3.15144258545
0	10920	10289.754509879378	1.793902463813
0	10936	10310.359355321907	2.812782296942
0	10941	10311.940884654232	3.088760365803
0	10946	10313.841789535814	2.034541640381
0	10949	10315.15062505287	1.451111364693
0	10960	10323.416976620843	1.531357598677
0	10967	10336.184713711781	1.466017833911
0	10970	10337.519111932633	1.381206913176
0	10987	10354.09838157583	1.956283785299
0	10990	10355.528603518828	5.807741403382
0	11012	10384.967808903767	2.269814254548
0	11025	10401.556725088956	1.763158778474
0	11030	10412.721014962504	1.926817618497
0	11035	10415.431434274448	1.911921868846
0	11045	10419.348751269076	3.38035942317
0	11050	10429.687185921928	1.49647879079
0	11057	10431.871172562137	1.609757623821
0	11060	10433.597020858235	2.065945493661
0	11065	10441.603456625274	1.424061307125
0	11070	10449.409547221824	1.742124483362
0	11080	10456.703360718301	3.306014085134
0	11087	10464.676119144545	1.403224304318
0	11094	10466.63821795369	2.397447638432
0	11097	10468.518730924562	2.938267938044
0	11107	10471.706482265614	1.661702381328
0	11117	10475.236265390954	3.742324824083
0	11120	10476.850166797481	1.718280160527
0	11125	10479.378990046946	1.540467399545
0	11130	10485.260399330323	1.841192365251
0	11135	10504.946255290793	1.927946330979
0	11140	10511.60073562245	1.829254327528
0	11150	10522.673118491875	1.307942587882
0	11155	10524.519358840853	1.27374533806
0	11160	10527.0060088476	1.224388292804
0	11167	10534.632014426897	1.972535733134
0	11170	10536.326023630175	2.071247266739
0	11180	10550.234350395563	1.495902392641
0	11192	10565.320964090983	1.918718659133
0	11205	10585.290313094868	4.070793778617
0	11210	10589.362295375258	1.822478466108
0	11220	10599.479552240299	4.010843499343
0	11230	10610.11016207197	1.778729174659
0	11235	10613.579166029266	1.395352955349
0	11262	10626.074754794386	4.556390924938
0	11265	10627.408669834842	5.217321481429
0	11275	10640.183699118934	1.205195060745
0	11305	10679.566289619981	2.453433735292
0	11310	10687.460682115003	1.347871116735
0	11320	10696.444817264832	4.112101689029
0	11340	10704.30117854549	6.218781034243
0	11345	10707.437415298434	1.590691830404
0	11350	10713.519537371547	1.513340559602
0	11360	10719.491591153969	4.440862446625
0	11365	10721.469011393973	1.604127284884
0	11370	10732.283212697457	1.75674453564
0	11387	10747.726080563899	4.633555628324
0	11390	10749.333937819164	2.456449632892
0	11400	10764.001501995659	4.285631449378
0	11410	10768.752630386564	2.550274003479
0	11415	10775.443838861549	1.662190832384
0	11420	10783.144815309687	1.754208578914
0	11425	10785.667587367981	1.320304499194
0	11442	10801.878677960478	1.998724861629
0	11445	10803.377365121611	3.147341945706
0	11450	10805.316337006947	1.526176506653
0	11459	10810.846718284457	1.751858011261
0	11467	10813.32115237952	3.514266615546
0	11472	10815.234933366224	5.831033093819
0	11475	10817.075362793512	2.144222368632
0	11480	10819.923882656604	1.266818288155
0	11487	10839.367180338858	1.922066216543
0	11490	10840.963427467255	1.962191523092
0	11497	10843.361760929872	1.602949101478
0	11505	10846.072640787228	3.141697595027
0	11510	10857.422402029721	1.508354257606
0	11522	10863.146797810789	3.729736477751
0	11537	10884.434315905819	4.515804559125
0	11540	10885.895326267468	2.270517091683
0	11547	10891.061578391448	1.862823830731
0	11557	10895.057934442053	1.622338448279
0	11564	10896.76687292278	3.077655487872
0	11567	10898.101928591991	1.947742372827
0	11575	10911.216532070756	1.738447295688
0	11597	10922.198239982762	1.417127625644
0	11605	10925.316896339953	1.851747268578
0	11617	10938.214271788827	3.608252796238
0	11622	10939.714360530271	2.74707544737
0	11630	10944.401986074788	1.479683918506
0	11635	10949.911621555306	1.605326750502
0	11640	10951.765373295664	1.35137161091
0	11645	10969.856998758468	1.882588127814
0	11655	10990.861180089109	1.313275598176
0	11660	10993.641820711174	1.514031924307
0	11670	11016.808472790336	5.559868735143
0	11675	11018.312827872908	1.498866725899
0	11680	11020.963879907299	1.707204177044
0	11685	11026.949396008184	1.802511776052
0	11690	11035.844513779484	1.841577893496
0	11707	11049.030636533115	2.931688089387
0	11718	11050.785173718583	4.362891469828
0	11724	11053.957526484456	3.37907403194
0	11737	11058.506724876118	8.098761542387
0	11740	11060.266969665651	9.644378702392
0	11754	11064.920405249051	1.805846829227
0	11757	11066.27466732034	1.80318232018
0	11775	11085.135482056743	1.586296934448
0	11780	11091.899507829939	1.265080893598
0	11785	11095.370266085362	1.97437615823
0	11810	11128.74363577225	1.326666213945
0	11822	11135.935559670665	6.599760993503
0	11832	11143.046936713036	1.799867449142
0	11835	11144.832697197672	2.62155893345
0	11840	11170.138775428165	1.634242496267
0	11855	11179.457287758534	7.521190732306
0	11860	11185.150183455465	1.981564372219
0	11872	11197.265133968646	3.182373144401
0	11875	11198.539684789533	2.45508763744
0	11880	11210.19571548972	1.45856776759
0	11885	11212.264153542251	1.242241008021
0	11890	11214.564680015741	1.205744580552
0	11895	11218.297966040254	1.488688045926
0	11905	11237.074653858549	3.089525647101
0	11910	11239.7490269323	1.412258751318
0	11929	11249.901455773369	2.369961606661
0	11944	11254.930452321611	7.136669976889
0	11947	11256.679798262521	5.582873244562
0	11962	11267.333978763852	2.783790575063
0	11970	11284.994108434157	1.778745540231
0	11980	11293.997740026334	2.569520822046
0	11985	11295.376916272964	1.344117552415
0	11990	11307.408722187573	1.73785267584
0	12002	11316.873075868762	1.70302789975
0	12012	11319.802508645891	2.113287834662
0	12015	11321.763055400937	2.255842373242
0	12025	11325.714747215564	1.588376018591
0	12030	11337.481921987272	1.501861788519
0	12035	11340.697274633143	1.730229042657
0	12040	11352.342880547131	1.362622503564
0	12050	11362.351212909581	1.284421256743
0	12055	11364.882871889018	1.284715056792
0	12060	11377.328102977599	1.2804242488
0	12069	11381.143501790235	1.201798578724
0	12072	11382.687887838105	2.30359671204
0	12075	11384.413872969518	3.584864393908
0	12082	11411.219088184555	1.225607180968
0	12085	11412.550989787002	2.239323454171
0	12090	11413.951466230168	1.31428782586
0	12095	11420.810953565912	1.461711926386
0	12105	11440.853958938	2.232981325913
0	12110	11453.214380651125	1.475781086646
0	12122	11460.774687201951	3.779256791737
0	12130	11466.461651961499	6.248041630364
0	12135	11498.772805726611	1.809883911908
0	12140	11504.201972968428	1.880503289215
0	12150	11510.675427965492	1.580739958771
0	12172	11522.230447038415	2.525642737046
0	12192	11532.953923751788	6.566040115858
0	12200	11535.971532250333	1.28698807545
0	12212	11554.763698292431	1.739603258111
0	12215	11556.430787285697	2.397726148781
0	12224	11562.851864347404	1.806911903061
0	12227	11564.588611604443	3.099496900409
0	12230	11566.296433914995	4.732965016564
0	12237	11576.743295415849	1.787923724391
0	12242	11578.653705194951	2.363048428443
0	12245	11580.114403985986	2.067680563897
0	12250	11600.622677495991	1.212196354568
0	12255	11606.7816072705	1.301630294695
0	12271	11613.424463260707	3.280582938202
0	12278	11614.843827814769	4.671348027991
0	12293	11619.502177799654	5.251436422775
0	12296	11621.347860212226	7.073762450665
0	12299	11622.704945413743	10.314719689693
0	12302	11623.999238174197	6.24119290292
0	12305	11625.788445583519	15.958900027722
0	12310	11629.338986407696	1.59409496095
0	12315	11639.321740439261	1.26746702306
0	12324	11644.640257605581	1.577736414783
0	12327	11645.926852469189	2.11222623451
0	12330	11647.463707464976	3.093529359395
0	12335	11665.662498889097	1.372634036839
0	12340	11669.613673852081	1.976328421012
0	12347	11675.788893351343	1.338814551011
0	12372	11684.856063404296	7.99062514511
0	12375	11686.233119762119	10.601232109109
0	12380	11704.218128477784	1.764246547036
0	12385	11714.109499414871	1.408608004078
0	12390	11719.452644637396	1.828024437651
0	12397	11726.850496984739	1.746669276431
0	12410	11742.899128714109	1.275232077204
0	12429	11747.836279308474	4.41416617576
0	12432	11749.52187571065	3.368365396853
0	12437	11751.381569390795	6.884820732574
0	12440	11752.895689887977	2.239915791013
0	12445	11755.420587053508	1.649354071356
0	12450	11768.829069278921	1.22703841161
0	12460	11786.145457232092	1.246235560067
0	12465	11789.957549331213	1.61606349051
0	12480	11810.499137802008	1.730331567302
0	12489	11812.387408844316	1.528570140153
0	12494	11814.086122234473	1.911564625428
0	12497	11815.679486782784	3.471042877253
0	12500	11817.620977528142	4.290630796436
0	12507	11819.766115155076	1.78055172693
0	12515	11823.322425078613	3.622863113542
0	12530	11829.059443218192	2.721701741439
0	12535	11833.084002590818	8.555069986712
0	12545	11841.913935529715	1.521489450149
0	12560	11877.516681205099	9.153607858577
0	12565	11879.907083160426	10.478902453232
0	12579	11888.412754196098	1.941216592863
0	12587	11891.260239413364	3.376628387615
0	12596	11892.806991646981	2.881748357426
0	12603	11894.076705668105	10.792562233579
0	12606	11895.506018266438	3.654608688449
0	12609	11897.374548660947	4.563953435636
0	12629	11928.678910263262	1.669830059446
0	12632	11930.057897849201	2.401668751487
0	12635	11931.845990774787	3.414094864307
0	12642	11939.640205539537	1.356835378706
0	12650	11949.128699232852	1.551396458969
0	12655	11951.530478385159	1.573277668841
0	12665	11956.268644202878	4.043013506771
0	12670	11958.67840593065	1.383053845167
0	12682	11985.379012947352	1.886355111375
0	12685	11987.178118038745	5.884276037156
0	12694	11991.09022299025	1.784221078642
0	12697	11992.527810745051	2.527478011307
0	12702	11994.138083462154	3.330025440384
0	12710	12003.241680991366	1.3644393038
0	12717	12015.920457672508	1.952683602832
0	12722	12017.547538987355	2.937818657243
0	12725	12019.237935708271	2.975285113162
0	12730	12033.138605363744	1.790596517548
0	12737	12044.002574030296	1.589139622077
0	12740	12045.774731331118	2.88776066893
0	12745	12050.706162117513	1.417344041355
0	12750	12064.024874653777	1.556558535993
0	12755	12076.070522025448	1.702410072275
0	12760	12078.629501888538	1.707398921251
0	12765	12080.876669498889	1.375433753803
0	12785	12088.932614165159	1.87952970583
0	12790	12093.594918803856	8.86244301416
0	12800	12102.339182221585	1.86650087256
0	12805	12106.440355895208	1.825767814927
0	12815	12112.033838033362	2.522430317735
0	12830	12136.845247197138	1.374323815107
0	12835	12142.228753507489	1.339597457834
0	12842	12144.660515805596	1.72767248787
0	12858	12147.99573082857	2.998392753267
0	12861	12149.264004192019	4.612665803255
0	12869	12151.821757829824	4.602162722771
0	12872	12153.096483234765	1.684795901814
0	12880	12155.838770853059	8.702750839854
0	12892	12167.672419560535	1.240077467449
0	12902	12171.535623037226	7.550369310827
0	12905	12173.256853773042	3.054570709062
0	12910	12188.690186096499	1.8354536945
0	12915	12211.895587087693	1.511201011762
0	12925	12218.565200622004	2.021388727307
0	12932	12220.5235595214	1.366991388239
0	12940	12227.369224091384	12.108486671886
0	12950	12234.75878593027	3.908503612715
0	12955	12237.082433855058	1.651744331233
0	12960	12239.5445704664	1.755647710152
0	12972	12253.304209562248	1.650206542574
0	12975	12255.060773426896	2.709768433203
0	12995	12290.659074375509	1.977861876227
0	13000	12293.647686509534	1.255579794012
0	13005	12296.922286215296	1.487354054116
0	13010	12304.888129456851	1.688197912462
0	13015	12307.073709964612	1.269832967967
0	13020	12312.410037142101	1.844367386773
0	13025	12321.064548649367	1.797058003023
0	13037	12330.499114020102	2.875057032839
0	13040	12332.337609769337	2.66689225445
0	13045	12333.793313370861	1.388524456695
0	13052	12344.91751713001	1.476737827621
0	13055	12346.49278051772	1.613984157237
0	13060	12351.489432950316	1.223323278874
0	13065	12379.6685673438	1.9808033593
0	13075	12398.336413424954	1.610101511329
0	13082	12404.963560594867	1.524290892668
0	13085	12406.433768557074	1.567493938526
0	13097	12409.8708656125	1.401926101744
0	13100	12411.484533712105	1.825105266729
0	13105	12415.630704306649	1.593963572197
0	13120	12423.021465824576	7.144908928389
0	13125	12425.621899117682	1.316046226025
0	13130	12427.821597326817	1.270575914904
0	13152	12435.361324537463	2.663954269996
0	13155	12436.9003955179	8.649926533281
0	13165	12442.397347462872	1.463705008104
0	13170	12444.392444950537	12.311355896013
0	13177	12449.148146146994	1.230178488977
0	13182	12451.135989380713	2.33816763788
0	13209	12463.127555910372	5.46555113521
0	13214	12464.899764709235	15.627054545437
0	13217	12466.718025850192	4.444750436823
0	13220	12468.454360767886	3.777149470978
0	13225	12480.336970797848	1.324384983815
0	13230	12496.871246646335	1.909111460298
0	13235	12509.867805161762	1.670343684033
0	13242	12521.271646912283	1.83699208945
0	13247	12522.763221558629	2.325239809434
0	13250	12524.349348296112	2.445352393255
0	13255	12541.395554254973	1.301494233496
0	13260	12544.300346512405	1.948127817176
0	13265	12551.413409755929	1.563586724736
0	13270	12554.141480799332	1.85984948054
0	13277	12561.366541980661	1.991204188019
0	13280	12563.280268818967	3.307585051713
0	13290	12566.85875102752	2.26354156615
0	13295	12574.45510590804	1.478421446867
0	13302	12581.987155693121	1.82097465042
0	13310	12585.933790558523	1.718562928215
0	13326	12590.844260823946	4.020927766096
0	13331	12592.293561388026	3.074814200091
0	13334	12593.890340780127	3.612878712508
0	13344	12597.182546720501	6.089757882267
0	13354	12600.219641780328	3.999134749564
0	13359	12601.988655152578	4.09638497246
0	13362	12603.538533953425	13.051964446489
0	13365	12605.178737614152	4.832733614639
0	13370	12625.310986273393	1.442946483009
0	13377	12650.378515084838	1.671886121668
0	13387	12653.789345232216	2.200397702248
0	13412	12666.885007714348	1.526125744916
0	13415	12668.220179222951	2.768206472668
0	13420	12677.946014081719	1.794203612581
0	13427	12685.178128019382	1.792584647052
0	13434	12686.756221687083	2.780496834069
0	13437	12688.6829668593	2.571956480307
0	13440	12690.31997595172	3.682954718883
0	13445	12692.035702464619	1.231793676317
0	13450	12702.851255012286	1.671991251968
0	13455	12712.602065130436	1.452867295593
0	13460	12726.598864261103	1.555799992196
0	13465	12738.057788685558	1.539233535342
0	13477	12756.919674146775	1.75016467385
0	13485	12760.322432071384	7.984928118609
0	13500	12794.59140081174	1.641631374694
0	13510	12803.627815545485	4.17795150072
0	13517	12812.168036849683	1.436451923475
0	13520	12814.082786058334	2.187972661832
0	13525	12839.932523821079	1.60499150753
0	13530	12847.811212088128	1.9051004434
0	13544	12869.849229572885	1.413175272755
0	13547	12871.416959050469	1.599748501571
0	13565	12887.90644393037	1.524657260627
0	13579	12896.65525571227	4.192326743221
0	13584	12898.394498149752	2.423129744374
0	13587	12900.132065926194	4.082062584135
0	13590	12901.886282019578	3.571158106715
0	13595	12905.464143899391	1.204500002973
0	13600	12919.506987417191	1.941094522737
0	13617	12933.857631377561	1.745284312218
0	13625	12938.271093650686	9.150380926258
0	13639	12955.831387526877	1.807189057209
0	13647	12958.984474987872	2.197455136051
0	13659	12962.169154495895	2.694482077516
0	13662	12963.849113908187	8.635155969457
0	13687	12978.368345036254	9.081306880996
0	13690	12979.949093733997	2.800636495743
0	13720	13005.200934734762	2.384765357724
0	13725	13009.65445068377	1.396591074206
0	13730	13014.948924627463	1.204227565415
0	13735	13023.412738870466	1.903367993049
0	13740	13031.377269551712	1.416837585904
0	13745	13033.662199569948	1.299203586206
0	13754	13049.00846343652	1.570576112904
0	13757	13050.259650229259	2.366838019546
0	13762	13051.980679563402	3.58870061159
0	13765	13053.354162916883	2.951462636656
0	13776	13055.613770993427	1.660598228313
0	13779	13056.891548726149	2.891084295663
0	13782	13058.708627730236	4.659829281493
0	13785	13060.457262087428	6.315382422141
0	13794	13068.07837280709	1.25066922605
0	13799	13070.020911675167	2.705487759867
0	13812	13077.262002400736	7.332007693613
0	13815	13079.187007892745	2.532432158039
0	13820	13091.972299605174	1.835964312777
0	13827	13093.537138382167	1.20154102575
0	13832	13095.356958605357	2.188611417035
0	13840	13099.29784573635	4.433372428731
0	13849	13102.693424186993	1.980795337632
0	13867	13109.402860226252	1.277315422893
0	13870	13111.125923590132	9.738907572891
0	13875	13115.619397638986	1.350247322395
0	13890	13131.945287324918	1.339485131763
0	13895	13134.638061331325	7.154859621577
0	13905	13151.526518908351	3.451092823466
0	13931	13161.462760898593	1.652328626592
0	13934	13163.038609648246	3.217819906479
0	13937	13164.346349350672	5.560000750423
0	13950	13170.101428671517	3.270565018779
0	13962	13177.172679132836	1.405030805431
0	13967	13178.987677630836	2.21463089438
0	13970	13180.620805250535	2.598296477329
0	13982	13192.173564557275	1.995269820094
0	13987	13193.398263964346	2.452243117134
0	13992	13195.183818953587	2.867200971541
0	13995	13196.58100922118	1.97047226862
0	14000	13209.88398528665	1.703203177266
0	14005	13218.166183427783	1.630947646685
0	14010	13220.628278607137	1.680384678021
0	14017	13223.932913141519	1.812178939581
0	14020	13225.391873294309	2.635905865069
0	14030	13239.472026774375	2.954137848142
0	14037	13251.617275835863	1.65089458935
0	14040	13253.304417667455	2.532443860119
0	14045	13270.886717979987	1.879238139279
0	14050	13280.716240253783	1.522000128403
0	14055	13285.65017003691	1.636519355699
0	14060	13291.757343443221	1.878965349495
0	14072	13300.217243441297	3.202895529669
0	14080	13310.681086829614	1.580365302414
0	14094	13316.082961573381	1.597997894697
0	14099	13317.984304496575	6.242599192262
0	14119	13326.537491239158	1.885368332453
0	14122	13328.309160897618	2.666157163258
0	14139	13339.333548354261	1.428071231671
0	14142	13341.010608196721	3.087487528007
0	14155	13346.155247642287	9.668936369293
0	14162	13349.562020641329	1.513630580902
0	14165	13350.807106435808	1.892063527967
0	14170	13359.530806212123	1.716133095138
0	14177	13364.762520438714	1.470055237785
0	14196	13369.308194322979	3.464549397587
0	14199	13371.263356065286	7.668783510383
0	14202	13372.950387196524	7.389618527142
0	14210	13380.053932299692	1.431562780589
0	14217	13387.60507234784	1.994382550381
0	14225	13393.815150964359	1.339645297453
0	14230	13396.852397940386	1.675706474297
0	14237	13406.80600483086	1.88895076327
0	14240	13408.741292025932	2.431284184958
0	14245	13413.297638294661	1.337190613896
0	14250	13419.065546903942	1.776757496223
0	14255	13426.953819122216	1.851179097034
0	14270	13441.567037006907	1.643938899413
0	14277	13444.380552966527	10.488490209898
0	14285	13448.074786177157	3.837211966911
0	14292	13456.569038628467	1.869600297511
0	14295	13457.857935371489	1.482244398868
0	14305	13481.131481073181	1.916797344387
0	14310	13482.770224168901	1.355833824538
0	14325	13508.693777121976	1.984253804013
0	14337	13531.231407281322	1.623920868151
0	14350	13544.312816286304	1.540721302666
0	14360	13559.719411702473	2.331618052628
0	14374	13563.649644744466	3.198374451289
0	14377	13565.008205152187	2.382888430304
0	14390	13584.093124797087	1.836851018295
0	14400	13588.022529604867	1.442559586811
0	14416	13592.344717520423	3.106764889941
0	14419	13593.907612713188	5.419683084265
0	14422	13595.504381569423	4.249208384874
0	14430	13600.088472886042	8.749041522768
0	14440	13612.160384827996	4.59011037266
0	14445	13613.740148798304	1.530190509744
0	14465	13656.542327325093	2.382124051379
0	14470	13660.600737802463	1.627760584466
0	14482	13665.036015659932	3.631428086641
0	14490	13668.22626337705	4.05776083264
0	14495	13674.165008710745	1.898609740846
0	14517	13686.442697399039	1.353181857802
0	14522	13688.241515860636	2.891162982881
0	14537	13693.829110448129	1.445017782785
0	14542	13695.522178059883	2.602138082133
0	14567	13705.077441482904	1.8420698618
0	14570	13706.660455209675	4.583011644148
0	14575	13712.587568813128	1.846586552635
0	14580	13722.958463676361	1.932486809231
0	14585	13738.756799783488	1.86215908546
0	14592	13743.748540426418	1.879039693624
0	14595	13745.690620372258	3.353272994522
0	14624	13767.19674751635	6.099421043989
0	14627	13768.480148316988	4.022405554254
0	14632	13770.129037864202	7.389144603163
0	14645	13790.610688468984	1.737755565904
0	14650	13796.376610261233	1.545593009517
0	14657	13798.746647420791	1.852197356522
0	14670	13806.816269257587	9.513656253161
0	14685	13832.822085467951	1.404885231704
0	14690	13843.957713728933	1.536724848859
0	14697	13845.314011786736	1.277209118009
0	14707	13851.743141218468	1.73601393532
0	14719	13865.587334606148	1.916876928508
0	14724	13866.945011392891	3.125980371701
0	14731	13868.322026280783	3.879068878137
0	14737	13871.61669326397	4.301421357823
0	14744	13873.504090095967	6.061605877131
0	14749	13874.922912317052	2.891192956426
0	14752	13876.145797544255	2.814261014954
0	14755	13877.64171067877	10.776724926903
0	14760	13882.488291759052	1.522485099919
0	14765	13884.665799503035	1.838913509063
0	14772	13894.561217939059	1.79195067361
0	14775	13896.321483812059	3.362571246267
0	14780	13900.9820022893	1.409354494326
0	14790	13904.481265328292	2.211033840432
0	14799	13907.456271920421	1.859080400504
0	14820	13915.96801670253	9.762105619529
0	14827	13917.578434591188	1.445420274884
0	14835	13921.560876350673	1.645186325535
0	14847	13927.872984263891	2.264902312514
0	14855	13931.520767440255	6.935762809166
0	14860	13935.504544343714	1.569720801152
0	14867	13937.517951599721	1.418018519133
0	14870	13939.322137092639	1.854979137977
0	14877	13943.931407632725	1.718568070605
0	14885	13950.145148833052	1.985475054756
0	14890	13953.106890319648	1.686331386305
0	14900	13961.937202585441	3.141787224281
0	14905	13975.393768807756	1.714886157028
0	14910	13988.853001484067	1.558116545342
0	14920	14011.510887610386	1.82007041499
0	14925	14015.514522559289	1.276541874185
0	14930	14018.3848514404	1.503865002096
0	14935	14020.336479656213	1.419255318865
0	14945	14033.496042825758	1.529132381827
0	14952	14039.6661130727	1.210849125125
0	14955	14041.427701964296	2.003620299023
0	14965	14051.582764724235	3.479970837545
0	14970	14057.461494352302	1.259336875379
0	14975	14066.63639486144	1.45537040513
0	14985	14078.699979108694	1.220410986431
0	14990	14082.026314818748	1.58893768061
0	14995	14091.116885320971	1.360523291677
0	15000	14095.063221520039	1.580624012277
0	15007	14098.35381571092	1.512128334865
0	15010	14100.088521577048	2.725476099238
0	15015	14102.816661803227	1.550922368094
0	15020	14105.820895394891	1.72767976243
0	15025	14115.267547322601	1.935101877339
0	15030	14122.417823972284	1.291530409828
0	15039	14136.513800464603	1.303229614906
0	15042	14138.442362330141	3.087727867313
0	15045	14140.286557026985	4.366360052706
0	15050	14150.797440034091	1.558895913884
0	15055	14154.522800412607	1.369720674679
0	15060	14158.642753684052	1.324063753337
0	15065	14165.932446249888	1.941377966851
0	15075	14176.864943512887	1.998056210019
0	15082	14178.696534049682	1.527862888202
0	15085	14180.229390485197	8.765419754525
0	15090	14198.370443936772	1.99366650153
0	15105	14210.670239326196	6.862200222534
0	15125	14270.132709897604	1.992665649392
0	15140	14278.649794442558	5.708136855714
0	15160	14289.398137302171	8.245126553918
0	15165	14297.260531355564	1.581631386466
0	15175	14307.992398836726	4.082795512936
0	15182	14322.166302341618	1.520344392583
0	15185	14324.06537434461	2.587251239822
0	15190	14329.237372466999	1.900227643922
0	15197	14331.232900774849	1.471882274933
0	15205	14351.340780310422	1.813515193388
0	15215	14358.113096153748	6.287266946275
0	15220	14361.614977471077	1.954365775362
0	15230	14370.10742034053	1.330832960643
0	15235	14372.241443043471	1.622347864695
0	15240	14380.913263516071	1.680977630801
0	15245	14388.335235100716	1.851770898141
0	15250	14442.30362626175	1.319911941886
0	15269	14454.302766455111	4.230664308859
0	15272	14455.582826808986	1.993435621094
0	15275	14457.092319390696	2.929461439412
0	15285	14472.450637042743	1.893457803503
0	15290	14477.59685507592	1.665959957615
0	15306	14482.478284358303	2.393380470685
0	15311	14484.347759552742	4.044433919161
0	15314	14485.831137088756	4.504649208468
0	15319	14487.409480572934	5.060408962873
0	15325	14490.138911164995	3.389506779632
0	15330	14492.233890988224	1.614038276486
0	15340	14495.886797430102	16.317399299184
0	15345	14503.36948208829	1.206757971272
0	15350	14522.329289918023	1.952517416328
0	15357	14525.048969796265	1.505513657071
0	15360	14526.357487044262	1.900200517224
0	15365	14531.965256484193	1.807689973898
0	15370	14538.934121071344	1.562617523409
0	15377	14541.142968249769	1.663245050423
0	15380	14542.373867250309	2.232229367714
0	15390	14551.667524387384	6.275739015547
0	15410	14565.281122582741	5.363409610133
0	15415	14568.675388824529	1.945235572942
0	15420	14579.943115567449	1.958095176518
0	15430	14595.086772349272	4.939725898365
0	15442	14611.501615415035	1.410586414114
0	15445	14612.905947883507	5.886206901947
0	15455	14625.814639279082	4.068798985557
0	15464	14629.241644773681	1.250482108444
0	15467	14630.671353362736	2.063587460055
0	15470	14632.638671417211	3.48819861637
0	15479	14639.653667891747	1.364190078154
0	15492	14645.076346053112	1.994221161678
0	15520	14659.627898492857	1.49532815218
0	15525	14663.795887633469	1.51449005492
0	15530	14672.932313855192	1.302162247896
0	15568	14685.559836246336	11.030552026067
0	15573	14687.155776532071	6.94630271962
0	15576	14688.730931037555	4.186688533558
0	15579	14690.182125393192	4.923284788743
0	15606	14698.414984486702	12.573816180924
0	15614	14701.750875527116	11.208604530188
0	15622	14705.487129233854	9.374230107032
0	15635	14710.204978294246	9.449176474317
0	15645	14719.95081811732	3.392553957838
0	15650	14723.955289105797	1.569880393893
0	15655	14728.71511089826	1.371003555506
0	15675	14744.061620235547	1.775808458403
0	15685	14752.658634111158	1.483366062578
0	15692	14768.877034119719	1.429362130351
0	15695	14770.632306633161	1.99568955466
0	15702	14783.10714598796	1.857148498669
0	15720	14792.441166590224	4.616241610795
0	15727	14820.812990979231	1.683046376146
0	15734	14822.623462180174	1.865363944945
0	15737	14824.394877128243	1.821620842083
0	15762	14846.548299123827	5.271583047178
0	15765	14848.010246980484	2.058831816796
0	15770	14855.794956345328	1.905787081271
0	15780	14865.077259759142	3.385953300434
0	15785	14878.813073185595	1.566746299714
0	15790	14893.832479558371	1.204211062752
0	15795	14898.038082169409	1.754604434967
0	15807	14912.528910412756	1.218988869712
0	15810	14913.805630975706	2.36316264976
0	15815	14915.607996885844	1.640743048117
0	15822	14919.459850138869	1.784940700047
0	15825	14921.189958758909	2.259612487518
0	15835	14968.314838207274	1.703671490215
0	15840	14981.042453177324	1.886937177926
0	15855	14993.100450243353	7.963875838762
0	15860	14997.446472352123	1.782502773963
0	15872	15019.477972020377	1.898357416965
0	15875	15020.901890965347	1.839314184336
0	15880	15031.407086931073	1.232357910648
0	15892	15035.757792085706	2.656850574874
0	15897	15037.104941148421	4.490894715302
0	15905	15042.523832508284	6.488335403139
0	15910	15048.315009834424	1.210774947889
0	15915	15057.668923822194	1.436055420525
0	15922	15062.201342716663	1.839473188668
0	15925	15063.486970047316	2.33136846499
0	15930	15065.904930457319	1.248219606839
0	15935	15069.380033809626	1.331008824334
0	15947	15084.472322209842	5.186143193811
0	15950	15086.051520817831	2.56797174711
0	15955	15089.574566433383	1.360322540626
0	15960	15096.166862907692	1.203290269524
0	15965	15099.169233859962	1.929281429574
0	15985	15121.81991975581	5.766369105674
0	15990	15123.719774899984	1.876296513528
0	16005	15149.36117396845	8.520537673157
0	16015	15166.202190887896	1.240804241411
0	16029	15173.870986258157	3.425610863601
0	16032	15175.21309709932	2.863625579373
0	16035	15176.886436548003	6.490460725315
0	16040	15180.158261798037	1.658701209724
0	16045	15196.257981727724	1.530774376541
0	16057	15203.529448639823	1.981980198249
0	16062	15205.128002221545	1.66103201992
0	16065	15206.728710813297	2.290716779102
0	16075	15215.244896131823	4.172593400159
0	16090	15227.833943103337	2.71887757454
0	16102	15230.504791117366	2.40130638728
0	16105	15232.003924071882	2.703206100967
0	16112	15237.963582518247	1.46849231068
0	16115	15239.908701721315	12.03662686033
0	16130	15260.629316511638	3.346852209585
0	16147	15271.029199786587	1.464766111604
0	16155	15274.819357483005	3.08052124923
0	16160	15278.154649361331	1.524850366078
0	16165	15280.519826446537	1.591258738562
0	16175	15292.977669176684	5.151275231266
0	16180	15302.935927432867	1.679583115131
0	16185	15309.328509263474	1.872234565392
0	16190	15316.996051948941	1.797534224391
0	16195	15323.44292992535	1.774352159351
0	16207	15367.177998640149	1.883456101827
0	16210	15368.404600224963	1.770672202625
0	16220	15375.587879812544	5.383767013575
0	16232	15388.60747193943	1.513904945366
0	16235	15389.820332844995	2.26806303378
0	16250	15399.308453134079	6.02851416231
0	16257	15418.949768459565	1.506644547172
0	16260	15420.428224148183	2.085320231301
0	16265	15440.993682595244	1.374578390084
0	16272	15444.929248273225	1.549320194684
0	16275	15446.702759230921	2.997142223388
0	16285	15450.205707924737	3.47780796933
0	16290	15467.296871279116	1.616986459494
0	16295	15476.40302916692	1.991512830183
0	16300	15482.838293274563	1.733632191457
0	16312	15493.860655682127	1.983554606885
0	16319	15495.72677406628	9.74971633807
0	16322	15497.501317314397	3.155632023079
0	16329	15498.791910242814	4.256339459592
0	16332	15500.664665307629	3.101867766772
0	16337	15502.416495681147	4.711387572246
0	16340	15503.696866090747	2.38283755978
0	16345	15508.422620865677	1.227085474692
0	16357	15514.749231317906	1.360162074305
0	16370	15525.435809404108	4.186697429211
0	16375	15529.064457805605	1.546883978136
0	16385	15538.515485808793	4.166555458477
0	16390	15540.108824609004	1.382485251315
0	16395	15548.530603330145	1.922159398533
0	16405	15566.795033355259	2.951090203559
0	16412	15571.700333298823	1.20245280005
0	16415	15573.067995568259	2.546360506969
0	16422	15576.649107696087	1.230182413384
0	16427	15578.402677331277	2.780721322016
0	16430	15579.860141069786	2.42184371895
0	16435	15583.925469286519	1.530877237394
0	16440	15587.073437261934	1.512989031523
0	16445	15589.603739147368	1.955363048799
0	16455	15601.632255632853	3.540555069353
0	16460	15614.760834823207	1.653543081693
0	16465	15628.578221135542	1.539264736325
0	16482	15633.874623202649	1.364779119007
0	16495	15666.040490521038	1.828614626639
0	16507	15669.11449892447	1.721194000032
0	16529	15680.933150113035	1.496624834463
0	16532	15682.39716046996	6.959988342672
0	16535	15684.333078252557	3.470566184529
0	16540	15700.785278499511	1.583607813716
0	16545	15703.071148361931	1.408261512592
0	16550	15709.377447276784	1.709205636941
0	16555	15710.651863869772	1.226914488338
0	16560	15718.405769093509	1.327505562454
0	16567	15724.963884531836	1.645750373788
0	16570	15726.536213026884	2.036634817595
0	16575	15738.084138976316	1.863656253181
0	16580	15740.474298625109	1.868832167611
0	16585	15741.901626540581	1.41783119645
0	16590	15758.907720321232	1.977248680219
0	16600	15764.43574132544	4.143823211064
0	16610	15788.95745044941	3.979981425949
0	16615	15791.419672557319	1.264265267923
0	16620	15798.957062189231	1.728230798431
0	16627	15806.589248614413	1.427633802779
0	16630	15808.312038781894	2.886377454082
0	16640	15812.810365303009	4.322613588296
0	16645	15830.326835132101	1.577881740592
0	16662	15842.645884035256	1.733106986061
0	16665	15844.559889725883	5.27621434063
0	16670	15851.666903900944	1.596755494736
0	16680	15862.032904648658	1.368180337174
0	16690	15869.627229004892	1.396491924115
0	16697	15872.329858283489	1.283780831285
0	16700	15873.850410668901	1.947168874758
0	16710	15884.21533225759	1.391261353716
0	16725	15901.860103018431	4.656848810054
0	16730	15918.251904883164	1.828537127562
0	16759	15929.891694975381	6.250975852273
0	16764	15931.497331164141	5.231434702913
0	16767	15932.931281489615	2.130503976436
0	16775	15941.827559457057	1.773374475911
0	16780	15949.168868279374	1.45905020386
0	16785	15959.481558905219	1.232547556795
0	16790	15969.613929863866	1.870804843493
0	16800	15974.229902090086	2.560283623029
0	16805	15976.655124524471	5.421728644243
0	16810	15981.729479019789	1.380240440369
0	16815	15987.739508872098	1.3876333002
0	16825	16015.148268874808	1.772812311351
0	16840	16024.393107242055	6.092002482719
0	16847	16034.599404107719	1.992995796353
0	16850	16036.038625036306	3.006144984005
0	16872	16055.720308354783	1.352375595644
0	16875	16057.012741319376	1.570242858674
0	16882	16074.160932287225	1.472983699292
0	16887	16075.616928241053	1.694197919968
0	16890	16076.896952086338	2.173382463311
0	16900	16082.624880426264	3.08159310783
0	16905	16086.226852522637	1.413017844409
0	16910	16090.773225350579	1.897984804958
0	16915	16093.40678948892	1.629390687495
0	16931	16118.830431448766	1.488998833299
0	16936	16120.624344162554	3.225835437628
0	16939	16121.829211250417	3.728491336506
0	16942	16123.095889474176	4.965446599329
0	16954	16126.195478300288	1.753058767713
0	16962	16129.431661314614	3.618968431695
0	16967	16131.401629856139	11.048778200146
0	16987	16141.157702316832	9.231673138588
0	16992	16143.135080229979	2.851551157976
0	16995	16144.644637288269	2.578571265973
0	17000	16156.145194832227	1.395465643331
0	17012	16164.460657054958	1.953442804702
0	17015	16165.821477001374	4.72358370653
0	17020	16174.163925875647	1.619953024574
0	17027	16177.765049065549	1.525333576277
0	17030	16179.162902947228	2.214790670947
0	17035	16185.421658558092	1.669589994662
0	17047	16190.192252061043	1.94966946952
0	17050	16191.908587433484	2.449034109284
0	17060	16197.563824484463	4.615376512492
0	17080	16229.265424336152	1.849733866192
0	17090	16246.674171340568	1.839937024758
0	17100	16259.556855806206	4.488372595238
0	17107	16267.207513482896	1.365253016539
0	17110	16268.626898518046	2.000646927482
0	17120	16283.232849497191	2.127871287067
0	17127	16286.45556334635	6.614804019058
0	17135	16300.38509841307	1.986806587875
0	17147	16318.863210102641	1.675413814932
0	17155	16328.503458810665	1.246127499826
0	17160	16344.932828853033	1.977021487057
0	17167	16353.088670615225	1.30566158127
0	17177	16355.964038528993	1.565631269751
0	17180	16357.214420587129	5.42220219598
0	17185	16359.376285486078	1.587527282909
0	17197	16362.780451898068	1.455829740536
0	17210	16370.561436466334	1.583158022352
0	17217	16373.741958727804	1.454574126564
0	17222	16375.467788193119	1.913933378958
0	17225	16377.4429550295	2.184937460394
0	17232	16380.580556122399	1.806980059482
0	17240	16385.57166911636	5.413932387956
0	17257	16401.45885061291	1.538764064759
0	17262	16402.747578510502	5.093341913059
0	17270	16407.145490753216	1.707361275703
0	17275	16409.398363050794	1.348876922764
0	17292	16419.050802651424	5.072302758135
0	17297	16420.284317957241	5.571742550313
0	17307	16423.382047393549	2.177694636696
0	17310	16425.14960670397	3.553888277393
0	17324	16430.47929260439	1.623298675008
0	17340	16436.173417670909	15.954730626906
0	17345	16439.802025453688	1.330221870914
0	17350	16450.231251794387	1.613028068841
0	17362	16465.636940028683	4.525653106315
0	17369	16467.460355816015	3.477768173942
0	17374	16468.935852204801	1.580883883587
0	17379	16470.71422864923	3.180031101113
0	17382	16472.372995843158	3.088486564174
0	17390	16475.47261906802	1.369060391374
0	17407	16480.362846174879	2.891014049565
0	17410	16481.743710938511	6.172803919762
0	17415	16499.234790834306	1.483675854653
0	17425	16506.853150266591	3.947144725841
0	17430	16510.828924801041	1.267317220382
0	17435	16530.346505232618	1.38450698033
0	17442	16546.220685581505	1.775631929934
0	17452	16549.474206192764	1.605698479339
0	17467	16559.474889600696	2.656026247679
0	17470	16561.379986447701	3.060442939511
0	17475	16563.137354914916	1.719563789107
0	17489	16586.928213766931	1.475464663655
0	17505	16598.167095430513	1.899394679631
0	17510	16600.730227555603	1.791684769839
0	17525	16631.314863740184	1.875338548422
0	17530	16640.279822376424	1.392713838629
0	17542	16656.201707896542	2.480430871029
0	17545	16657.978039167028	4.824883395619
0	17552	16666.848495726859	1.843237431347
0	17555	16668.418673095306	1.901674369837
0	17560	16670.110134413853	1.247967298701
0	17570	16677.337910171626	1.882457001002
0	17580	16680.403338405944	1.832999941893
0	17585	16695.55790886706	1.485354975984
0	17612	16733.741263673101	5.109713887703
0	17617	16735.123375491072	5.99925392067
0	17627	16738.088923948464	2.693323544035
0	17630	16740.024741635305	5.287872365915
0	17635	16747.426061018464	1.277589639835
0	17640	16760.61733676351	1.86281918101
0	17645	16763.620899143528	1.36467043478
0	17652	16769.749622931808	1.862985462882
0	17655	16771.308423479751	1.687744621263
0	17670	16804.186323963825	1.775219748914
0	17675	16810.871495252981	1.879517262615
0	17684	16816.934794765444	1.663413912058
0	17687	16818.253402624385	1.855132553172
0	17717	16831.642353029914	3.598694396492
0	17722	16833.518924004577	16.711040771195
0	17725	16835.488340792984	10.707239278221
0	17737	16842.269498250745	1.402112892829
0	17750	16847.529237394825	5.025497207982
0	17760	16853.793955242052	2.286074482433
0	17767	16859.671651280578	1.21118815504
0	17772	16860.891208935063	1.905837564288
0	17780	16863.94212304981	3.859252244658
0	17785	16874.76765746058	1.363748440892
0	17805	16893.72980942192	1.686277202703
0	17812	16897.249596656639	1.673259531148
0	17817	16899.152889168229	3.005378779363
0	17829	16902.583270718015	4.368718846952
0	17842	16907.254645200304	5.491268338332
0	17845	16908.808940069794	3.936089389632
0	17850	16910.420964337715	1.27370601818
0	17865	16922.026078073907	7.548685089948
0	17872	16930.488946390854	1.852642903849
0	17885	16938.791207089067	1.695037087984
0	17895	16943.900532689388	1.489788177796
0	17900	16974.562517269629	1.215237281099
0	17910	16988.786226214218	3.461260643125
0	17915	16994.969666557749	1.32505997587
0	17920	16999.11619849676	1.929379655421
0	17930	17005.693964160837	3.482401685595
0	17937	17020.434722921086	1.400870748237
0	17940	17021.708054455017	1.412876364132
0	17945	17032.891376409447	1.333859820664
0	17955	17053.534674067129	1.811891965941
0	17962	17056.328022639838	1.424358917028
0	17965	17058.035727906984	2.592205009503
0	17970	17062.45218959045	1.452997671813
0	17998	17072.209586032681	7.074201906659
0	18003	17074.06767313575	8.847349510322
0	18006	17075.481786789387	6.181669495777
0	18009	17077.188610785096	6.954456427271
0	18012	17078.54846314007	12.391404876098
0	18015	17080.322915795832	6.831151318125
0	18024	17083.603163095258	1.686611627787
0	18027	17085.323285369828	2.798196734419
0	18045	17129.543450506054	1.427035426162
0	18050	17144.941542358703	1.541444176249
0	18055	17151.7048125849	1.379887577705
0	18062	17153.5479760998	1.267647286877
0	18079	17158.05106576002	2.804829263746
0	18084	17159.930476657588	3.290396533785
0	18089	17161.266136763532	7.953519038466
0	18092	17162.817693180878	3.990369398469
0	18095	17164.027304954183	2.896432096628
0	18100	17168.894898326848	1.952856525034
0	18119	17177.513442736385	1.847442276726
0	18122	17178.958316437048	6.840289714932
0	18130	17184.656058063766	1.551547793299
0	18142	17191.812279551364	3.413264481462
0	18145	17193.034732940867	1.227670823231
0	18155	17203.743330721828	1.947872721153
0	18172	17209.271354996021	1.702846818754
0	18182	17229.410056168649	1.444519603439
0	18208	17236.7578558366	4.672475743666
0	18211	17238.036129001081	3.634888243973
0	18214	17239.263044303209	4.694939045499
0	18217	17241.029968546071	11.855694630881
0	18225	17245.112088655228	8.601403206213
0	18230	17257.526478814797	1.266129552573
0	18247	17265.435731719296	3.142343873012
0	18255	17269.510258807868	1.997547636554
0	18260	17271.933306010715	12.569081333957
0	18265	17280.592382297206	1.526319074072
0	18277	17285.81343508451	1.71056181211
0	18280	17287.09474737155	5.503476760211
0	18285	17290.469512787882	1.644576411881
0	18295	17295.082654342743	3.269691007946
0	18300	17298.508212836956	1.931728402711
0	18310	17303.147545136912	4.570193490218
0	18315	17305.616236273117	1.379621218517
0	18320	17309.103139489174	1.651138290018
0	18337	17326.096980611414	1.871439915709
0	18340	17327.898414388664	2.389118634043
0	18345	17331.757223500344	1.671291968785
0	18354	17338.139139655786	1.693129584752
0	18357	17339.504260908248	2.861517839557
0	18365	17359.798929329423	1.906956567802
0	18370	17373.780614483907	1.708613834903
0	18382	17383.1328420082	1.399540338293
0	18390	17390.94694182223	1.319296427071
0	18395	17396.59715734891	1.726906305552
0	18407	17406.192533990817	1.410760571994
0	18410	17407.958479468973	2.312442615977
0	18415	17412.963535972655	1.747380339727
0	18436	17430.668622716331	1.279859630577
0	18439	17432.214756789059	2.726605587669
0	18446	17433.619286767394	3.391268408237
0	18449	17435.399711290934	3.083494250034
0	18452	17436.615853855015	3.25327346495
0	18467	17445.636210024316	1.715105318651
0	18480	17452.767683539854	1.696005523577
0	18490	17458.779279366175	2.179846718874
0	18497	17460.886266238885	1.687692535296
0	18502	17462.767206737483	2.8294413739
0	18505	17464.166626460189	8.406142882861
0	18510	17469.987941929189	1.290707253478
0	18522	17474.807307346736	1.210334233567
0	18530	17478.199427097489	7.828352198426
0	18540	17488.1135625585	3.77348837077
0	18545	17494.331354194385	1.212207702175
0	18552	17502.363396379622	1.372616284713
0	18557	17503.627954771081	1.600027408274
0	18565	17507.469574387393	4.300200372688
0	18575	17519.209548652143	1.837926542759
0	18580	17528.886528371453	1.469542394951
0	18585	17544.127994393777	1.238470502384
0	18595	17554.5737991261	1.347603064775
0	18602	17561.878657348722	1.999679271132
0	18612	17565.027324277617	2.139573618584
0	18615	17566.962114335492	5.755617745609
0	18620	17570.729448610403	1.671651751548
0	18637	17586.17803361011	2.154590278694
0	18642	17588.098717010257	3.34910279904
0	18647	17589.371290666101	6.511119695559
0	18652	17590.602500644749	2.27863389432
0	18655	17592.092894726856	1.63035743397
0	18672	17604.04968350222	2.79882770282
0	18682	17607.501785219923	3.307401176866
0	18685	17608.798049846568	7.905226809345
0	18690	17632.602470447491	1.29538214542
0	18695	17634.709138754521	1.528091305681
0	18700	17636.623074781583	1.565496282093
0	18715	17656.284883949684	1.788591481932
0	18720	17660.881108980873	1.828462202847
0	18727	17663.988455263721	1.893448727392
0	18735	17667.207406922067	2.312573007531
0	18745	17671.221683242185	2.883731772327
0	18755	17675.044796544088	2.293764899552
0	18762	17684.50879418254	1.426671531238
0	18775	17692.508339725058	8.820432709667
0	18780	17698.244823482586	1.295877645165
0	18785	17716.477334172101	1.936850693636
0	18790	17726.008580987606	1.525583891384
0	18800	17748.62310731466	1.980870617554
0	18805	17751.35108673364	1.318610166572
0	18815	17762.209086562914	1.747101612389
0	18829	17784.369825288082	3.485257627913
0	18832	17785.863560176814	2.697354709386
0	18842	17791.441946434934	7.222639883841
0	18852	17807.243904470479	1.572414421663
0	18862	17811.268222813616	4.265074433639
0	18870	17815.480100601687	4.855699734427
0	18880	17823.53963818853	5.436587405654
0	18892	17834.298788748436	1.984518630481
0	18902	17837.280232069024	6.262800252997
0	18910	17841.048748503274	8.488277764296
0	18915	17843.972815115448	1.598438670859
0	18920	17846.399059789123	1.323416105844
0	18930	17850.793068809705	3.825321711853
0	18935	17856.861478199646	1.585579702444
0	18950	17881.35021783971	1.878264320828
0	18962	17886.623804717246	1.569511517608
0	18975	17897.975934344031	1.521163182706
0	18980	17921.024217710544	1.906365972199
0	18985	17938.395625778284	1.547527571581
0	18992	17966.015209961335	1.756214645691
0	18997	17967.51810984167	1.72766387121
0	19000	17969.442535059179	2.957052012771
0	19015	17977.478462311856	8.03222710786
0	19025	17982.493071428109	2.060783906967
0	19030	17987.601713251295	8.138399422905
0	19040	17992.914625512862	2.277555932914
0	19045	17994.412476740827	4.151955613677
0	19060	18003.329334575433	2.89485788183
0	19069	18007.227988677396	1.773751248606
0	19076	18008.666418591997	2.32159418631
0	19081	18010.308373976423	3.82539067343
0	19084	18011.609037481545	3.777585485639
0	19087	18012.821629414632	4.735576335184
0	19090	18014.803062767274	5.701978925185
0	19095	18025.222588673171	1.215136392973
0	19107	18041.186073858966	1.91463958174
0	19110	18043.075872372207	5.954802263432
0	19120	18054.721282728743	1.481254786626
0	19127	18062.439547006247	1.919173072651
0	19137	18065.716135629286	2.406108263955
0	19140	18067.569419255127	6.310761987447
0	19152	18086.265978761921	4.11351277739
0	19155	18087.691695545214	1.850716335378
0	19170	18101.540648569491	2.249642759894
0	19175	18103.898481843168	7.119251070699
0	19197	18123.276210886677	1.529346732236
0	19200	18124.605131643516	2.254544907252
0	19207	18127.04319676029	1.653726772778
0	19221	18130.426948530026	2.079225930975
0	19224	18132.09360794852	2.072777916637
0	19235	18137.268590924875	1.707340238764
0	19252	18142.942848501051	2.411330667659
0	19262	18156.356290274959	1.242694115825
0	19270	18159.148478261372	3.44340667259
0	19282	18165.842680187972	1.895165726915
0	19285	18167.669021415228	5.759930439972
0	19290	18178.511247402226	1.974884661846
0	19297	18180.293951750217	1.28740457464
0	19300	18181.912385376213	1.663641896378
0	19307	18184.13435129387	1.269104611874
0	19310	18185.81206737844	2.631751056078
0	19315	18187.719734546381	1.279016032442
0	19320	18203.542523515726	1.408917548135
0	19332	18212.7879651927	1.275367206894
0	19337	18214.410528652983	1.663945424446
0	19342	18215.776078958119	2.774955279335
0	19345	18216.981417671646	2.424229545657
0	19350	18229.653207666455	1.481961965747
0	19355	18238.184157670809	1.983932850696
0	19369	18246.425813918739	1.904276508271
0	19372	18248.048812440775	3.439982921927
0	19387	18253.613658911168	10.733025222458
0	19390	18255.325728927358	5.359555310514
0	19395	18257.645901145265	1.622974265367
0	19405	18273.60668873659	3.788242024214
0	19410	18278.551106637939	1.54544248227
0	19415	18288.885809834805	1.540789568052
0	19420	18298.928051401631	1.763505528681
0	19425	18302.600743954426	1.788912690617
0	19430	18316.895201166348	1.353690616414
0	19435	18322.191250517396	1.287344593741
0	19440	18325.223818541547	1.69909937717
0	19447	18328.829741339149	1.636790436506
0	19450	18330.566775188731	2.648420569752
0	19455	18341.86782663013	1.876484008878
0	19460	18347.397156140311	1.691755147465
0	19472	18353.255529394338	3.701259661265
0	19475	18354.463761922123	2.294695716675
0	19480	18364.300203855084	1.539824725688
0	19492	18377.891581267151	12.274480988793
0	19505	18382.86114757602	5.701917184821
0	19512	18385.02405917434	5.323054641234
0	19515	18386.661446729246	2.165458013231
0	19520	18391.144361867097	1.836551753804
0	19542	18404.610638944256	1.843044159748
0	19547	18406.414375104579	11.689388977462
0	19555	18420.339907578501	1.675910042413
0	19560	18425.19530279936	1.394627452269
0	19565	18429.589456641201	1.827928545699
0	19579	18438.058551882338	1.716259218276
0	19587	18441.674410353732	6.721839294955
0	19595	18445.199887732503	8.650654427302
0	19600	18459.099488010555	1.361486236006
0	19607	18475.970119000169	1.839164687507
0	19610	18477.74899602657	3.220874080681
0	19619	18482.80539421701	1.870874511078
0	19629	18485.512763948749	2.691103346241
0	19632	18487.299259412113	6.178488516129
0	19640	18490.539716317888	2.118786710886
0	19645	18501.028919490293	1.933093366772
0	19650	18507.282668581812	1.369209370948
0	19657	18509.325970424427	1.985862964019
0	19660	18511.002036378993	1.909921571035
0	19665	18513.321622337838	1.835477907024
0	19670	18519.185476554883	1.724075013399
0	19675	18527.138024945284	1.513698100485
0	19680	18530.379143960669	1.635093676113
0	19685	18532.428501434441	1.667076654918
0	19690	18539.588999329724	1.488224383816
0	19700	18549.578642965347	1.709559379518
0	19705	18556.968237992471	1.239200760424
0	19717	18567.282367268971	1.455102693476
0	19720	18568.845037168472	1.844040283731
0	19735	18593.414378962145	1.95505500827
0	19740	18596.935288135725	1.721408577636
0	19755	18604.828173557357	4.70790806834
0	19765	18619.008568310231	1.917364176735
0	19770	18628.568161177194	1.284302503243
0	19775	18630.007751051127	1.245585746691
0	19785	18669.522559757716	1.879796368442
0	19790	18680.148483188059	1.618323478103
0	19797	18682.138036533638	1.394720044732
0	19802	18683.676232642501	2.16438541849
0	19812	18686.650463924936	2.62909032355
0	19815	18688.423472186184	5.653093155373
0	19820	18697.858498949571	1.905042514391
0	19825	18719.965275078139	1.840597543865
0	19832	18735.892381135037	1.581029675715
0	19840	18757.672522821286	1.47318851091
0	19845	18768.210730442744	1.435743332654
0	19852	18770.866097337559	1.347744341008
0	19855	18772.140932082936	1.706473955496
0	19865	18792.328359524854	1.851429308392
0	19872	18797.311712425207	1.281889988668
0	19875	18799.239127170858	2.162083233272
0	19880	18804.768460699881	1.932758842967
0	19887	18809.261319263815	1.292184273899
0	19890	18811.204989935434	2.284978145064
0	19905	18838.823859671643	3.47639935992
0	19910	18846.785539734237	1.717061956227
0	19915	18851.7386044351	1.453182867356
0	19922	18866.165278170945	1.366609497927
0	19935	18906.261537973678	6.912933452981
0	19955	18917.09426159635	6.832022911009
0	19960	18925.510444507726	1.978145979345
0	19992	18949.471032916274	6.828012453206
0	19995	18951.148660301682	7.239302038191
0	20000	18956.928650888255	1.333232733794
0	20005	18960.475622568176	1.408990659192
0	20010	18963.919529252492	1.901161520742
0	20015	18970.010170505656	1.991472217813
0	20020	18971.931701490234	1.800640337169
0	20037	19007.722342952806	1.72256297823
0	20040	19009.434738982934	11.832173921477
0	20047	19028.750285476841	1.462665253691
0	20060	19036.143887071769	3.913429641219
0	20065	19038.151657530507	1.670979861356
0	20077	19050.288064354544	1.629965141229
0	20080	19051.83581874266	2.133484162297
0	20090	19058.825791707587	4.023500533566
0	20105	19070.960459474442	4.213020716353
0	20115	19082.754425551844	1.733750489168
0	20122	19096.60158705397	1.648782284372
0	20127	19097.95615438132	1.770909418352
0	20130	19099.230828414135	2.330922499282
0	20137	19102.302816927186	1.494696794637
0	20142	19104.002860362953	1.874375395427
0	20145	19105.631254997788	2.136834658944
0	20150	19113.257180151329	1.757135594264
0	20160	19125.409713819814	3.199415345195
0	20165	19127.698005221906	1.881625868008
0	20172	19131.026815260708	1.653098251484
0	20175	19132.586268399603	2.075937702682
0	20180	19135.429359748128	1.80068648234
0	20185	19144.908077008055	1.655694371089
0	20192	19152.281041910735	1.888251734152
0	20200	19156.161520129491	3.195275052966
0	20205	19158.701116474542	1.475196416304
0	20215	19167.901124086043	2.783760706658
0	20220	19177.159538205877	1.236452268995
0	20235	19194.383306752422	1.825926041976
0	20247	19208.877623862278	2.683220046935
0	20250	19210.173523479019	4.702561460995
0	20257	19217.625072698172	1.796834031306
0	20260	19219.487758333299	2.632808583972
0	20267	19229.987783777966	1.843151902221
0	20270	19231.372004104285	2.038633064117
0	20275	19234.289533923228	1.392250876315
0	20287	19243.730564924404	2.44948108049
0	20300	19253.418545980727	1.839963935129
0	20305	19256.433944892532	1.72046723552
0	20312	19259.501395946264	1.938640585355
0	20315	19260.767644525215	1.526619536637
0	20325	19265.112085514324	3.489784345987
0	20330	19271.774922817394	1.213504884019
0	20340	19289.466617545067	1.534826151095
0	20345	19312.29910390235	1.497078897618
0	20362	19331.381323030604	1.410721833631
0	20365	19332.635169763317	2.407334980044
0	20372	19337.826185469394	1.959542622976
0	20382	19344.722344489881	1.983774295636
0	20395	19362.137148608862	3.229666590542
0	20410	19371.085879536025	1.901379472837
0	20415	19378.113057419115	1.687322934531
0	20420	19380.435749241054	1.340253603272
0	20430	19394.001185548228	4.085368599847
0	20435	19395.903886506661	1.751031549275
0	20464	19423.360981859377	8.560060502957
0	20467	19425.320344305335	8.355928402491
0	20475	19428.118624660628	5.348327522275
0	20490	19455.065652679793	1.26649721209
0	20497	19464.799098249255	1.336941521242
0	20510	19469.978968171427	4.714119521963
0	20544	19501.591786572043	2.061326486544
0	20551	19503.42686303005	5.373667003959
0	20556	19505.015904758949	2.010222262532
0	20561	19506.657419552919	2.369717804627
0	20564	19507.861570594725	1.217575941615
0	20600	19538.587401850172	4.87681706891
0	20617	19552.843632072061	2.497323541622
0	20625	19555.911367308572	2.675810178855
0	20630	19561.261150024985	1.313288071565
0	20639	19569.86120598999	1.648293346912
0	20642	19571.342294380005	2.944687038086
0	20645	19572.620534423302	3.822029386915
0	20650	19574.890416381077	1.542862753943
0	20655	19580.007503777073	1.35826509092
0	20660	19591.91673310508	1.698318559304
0	20665	19599.047247666795	1.834024525061
0	20670	19613.309235496936	1.234207283519
0	20675	19617.073827948257	1.922535301745
0	20680	19647.81560361738	1.417594007589
0	20685	19655.448464160411	1.807882089168
0	20690	19669.133513926009	1.464168650284
0	20695	19675.927969498191	1.821140029281
0	20705	19681.226593786928	1.706386660971
0	20710	19693.327026693622	1.540903753042
0	20715	19699.290506046615	1.84423333928
0	20724	19713.519305576381	1.964424224012
0	20727	19715.17108964659	3.13698338753
0	20730	19716.509811171142	4.416939081917
0	20742	19727.353814174105	1.711069996655
0	20750	19731.958992677609	9.533151041301
0	20765	19744.705961640298	4.873103770213
0	20770	19758.921501618844	1.233093397319
0	20775	19761.641255667137	1.498836180195
0	20780	19773.632236896809	1.616019561142
0	20787	19779.812399801447	1.661571003683
0	20792	19781.589536692037	2.334324133822
0	20797	19783.55142511504	3.257787746822
0	20800	19784.957439465283	1.421551958088
0	20805	19787.223217930674	1.772060375661
0	20810	19798.870806851669	1.474535203911
0	20815	19800.990369377981	1.517921711504
0	20820	19811.461449997681	1.642103072628
0	20839	19835.259598071101	3.976419429694
0	20842	19837.133158715228	3.131449307432
0	20845	19838.345622215392	4.200011577317
0	20850	19849.481366598699	1.273512767255
0	20855	19861.607011924315	1.973447079025
0	20874	19870.656667374891	2.525697004315
0	20877	19871.861243377139	1.951363339639
0	20902	19887.044514683837	1.648770806566
0	20910	19898.007225472011	1.675113139115
0	20920	19902.474824971471	3.535155533182
0	20935	19911.533126240361	7.57213152009
0	20940	19914.434712936383	1.763349016197
0	20945	19922.190986725818	1.991179336235
0	20960	19935.962969450633	5.853558075429
0	20965	19947.264377865095	1.619848567806
0	20970	19952.18907007188	1.265906965919
0	20984	19960.334560892152	1.725354617834
0	20987	19961.581891258786	2.605672781735
0	20990	19962.871707823666	6.551678980005
0	20995	19970.346235472167	1.791522389092
0	21007	19989.920974786873	1.207524160109
0	21010	19991.719788606013	5.228755931903
0	21029	19998.52497921004	1.840145113133
0	21032	20000.464800517029	3.322703709695
0	21035	20001.923491893104	4.001221800413
0	21045	20011.569907497281	2.024059756804
0	21055	20020.654485356146	3.938501265374
0	21060	20035.760126600164	1.385415392742
0	21070	20044.914883382314	3.864075806709
0	21075	20053.605124008275	1.992959231324
0	21082	20056.000798019616	1.29233993981
0	21092	20061.254327909014	1.381798472442
0	21105	20078.043360940644	1.345837875642
0	21115	20083.497236108788	3.765779661361
0	21132	20090.91497018361	6.677297243364
0	21142	20094.266821162826	3.231884081402
0	21145	20096.040762187591	2.882889031078
0	21167	20108.841376452233	4.424298917712
0	21170	20110.647166962634	9.382132168798
0	21175	20117.726451739365	1.734026637301
0	21180	20127.142158494201	1.779356151447
0	21192	20133.455785918811	2.575330935345
0	21195	20134.699195973964	4.699722813442
0	21200	20138.312341250809	1.754607266001
0	21207	20149.925608551806	1.505717150681
0	21210	20151.126044036379	1.637825144565
0	21225	20167.825552871151	1.211118376814
0	21230	20182.11822015677	1.218912631273
0	21247	20189.431274856532	6.49000400677
0	21250	20190.955198954882	1.662854972137
0	21260	20200.773762176482	1.583504468761
0	21267	20205.951080070847	9.569297159935
0	21270	20207.863467457184	3.404773647174
0	21275	20212.92610214168	1.370860703476
0	21280	20223.433411585041	1.915142890252
0	21290	20231.166311997226	3.949376474032
0	21295	20238.20258806688	1.479965209402
0	21300	20250.252705355041	1.646920075826
0	21305	20255.72142551372	1.819746516086
0	21320	20279.517534547539	1.60944454968
0	21325	20289.945329410283	1.331477000378
0	21335	20293.930901321315	3.581016730266
0	21345	20311.034929185314	3.488292749036
0	21357	20364.754545752898	4.273876830418
0	21360	20366.25173136276	3.067046364444
0	21370	20371.995571383328	2.71999014922
0	21375	20375.436933692164	1.756729809009
0	21380	20377.85244544528	1.372582114302
0	21385	20384.211493433043	1.481181246787
0	21404	20397.200550619634	6.710789382014
0	21407	20398.548931057314	2.428595548399
0	21410	20399.914222463715	3.018298279032
0	21415	20407.717115422139	1.270583465882
0	21420	20415.045870203779	1.617204275727
0	21437	20421.475923392409	5.549840362024
0	21440	20423.233770462172	3.571157771456
0	21447	20427.137777306572	1.993928212486
0	21459	20430.693343861445	1.380251036212
0	21469	20433.407346366576	3.210447351719
0	21480	20439.7903494065	13.892298797868
0	21495	20462.750133709844	1.484931214526
0	21502	20467.68804721213	1.882450328954
0	21512	20470.960241584138	4.624027690353
0	21530	20482.011886167465	2.335239864399
0	21537	20484.340279738234	1.834334640764
0	21545	20487.743852171819	1.372914731503
0	21550	20498.892637032469	1.925178850256
0	21557	20500.917656161878	1.431353306398
0	21567	20504.093766667191	1.774764327199
0	21575	20509.772795953346	1.266980700009
0	21580	20511.898011773302	1.992587275431
0	21585	20525.456405165396	1.542097605951
0	21590	20531.554847818076	1.858979902975
0	21605	20557.470055892972	1.390224131383
0	21610	20565.771374199634	1.64923363179
0	21627	20571.920768220261	1.636250683427
0	21630	20573.633502059527	4.863613343937
0	21647	20600.675898845236	1.854251534678
0	21650	20602.263340410705	2.593491043894
0	21655	20618.504273835266	1.534281993844
0	21660	20620.716427617416	1.81840013098
0	21665	20628.195713064564	1.750017226674
0	21672	20632.57364368474	1.229342128895
0	21679	20634.286414727549	2.556859606697
0	21690	20639.350295885075	5.88623266522
0	21699	20642.121969455881	1.486803627573
0	21702	20643.93777451071	2.649629067808
0	21710	20660.923641733568	1.757025065087
0	21720	20668.290246546143	3.002625286309
0	21730	20686.565705797358	1.80803411901
0	21735	20711.541554896077	1.739935926721
0	21740	20740.167421672912	1.287568216957
0	21747	20745.719977435438	1.247911770456
0	21750	20747.502491987279	2.083504068312
0	21757	20752.106278135795	1.516956557147
0	21760	20753.88926080836	2.713704503691
0	21772	20772.082858883305	7.038441132512
0	21775	20773.570449891588	1.945770622858
0	21780	20777.105580093669	1.673844377138
0	21785	20802.796968367421	1.897697929479
0	21790	20808.255823638792	1.209366666526
0	21795	20814.62944740427	1.961432027631
0	21805	20825.227757285751	4.335296634573
0	21810	20827.616077565451	1.846327026561
0	21825	20837.927655155044	1.56529971417
0	21847	20845.673779320444	14.186676808942
0	21850	20847.37108961093	8.934638700841
0	21859	20849.636756133897	10.062278397165
0	21864	20850.870593076622	1.8395330085
0	21867	20852.769707195138	3.527072898228
0	21870	20854.45999756628	3.785136078619
0	21885	20863.831631944542	7.030483561895
0	21890	20871.195479764918	1.475418926403
0	21895	20877.206802458565	1.775707995892
0	21916	20896.333336590137	1.978624313511
0	21921	20898.233356609102	7.003671647285
0	21931	20902.011457100976	3.11865895202
0	21955	20907.961718684341	3.109160313022
0	21960	20909.375774009618	14.512678298406
0	21968	20912.70747731747	6.426051686165
0	21978	20916.071352776791	7.580973181336
0	21986	20919.280248941387	5.910673154117
0	21991	20920.729432183783	16.285312420377
0	21994	20922.431246442813	22.954359181648
0	22005	20927.326720336172	6.894027747613
0	22015	20944.922648476383	1.649984470196
0	22020	20957.827207094749	1.519136071578
0	22027	20959.834276220287	1.311499558203
0	22030	20961.301270259629	1.849980672137
0	22045	20969.86479730806	3.383130106734
0	22052	20971.451033869552	1.346492330171
0	22060	20974.392452828567	1.531587041133
0	22065	20977.544676579023	13.592332871117
0	22070	20981.055528970296	1.645797750726
0	22082	20992.584883734622	2.98058218278
0	22085	20994.457504848988	2.000797075251
0	22092	21020.32735690515	1.567793853208
0	22095	21022.269270026344	3.270768693645
0	22105	21029.041830818548	5.161651007189
0	22115	21037.76134321452	3.467099428164
0	22127	21052.143729374335	3.97997303422
0	22145	21058.810158225478	7.317960809231
0	22150	21067.667015315855	1.708913259394
0	22155	21071.928009175138	1.95615024101
0	22162	21074.435890158381	1.724685846828
0	22175	21080.667866881709	6.865543038033
0	22180	21084.446096101107	1.752514996566
0	22187	21092.013201293313	1.504068771563
0	22190	21093.457055974529	2.89608487504
0	22212	21103.33205527382	1.528827386781
0	22217	21105.055728059616	6.385286391416
0	22225	21108.485128883813	1.898600379922
0	22239	21119.614994858006	1.723794833943
0	22242	21121.553632665971	3.10677415634
0	22261	21126.983844808662	3.725069766316
0	22269	21129.667996416414	10.748462987779
0	22279	21132.912326359735	9.740496409801
0	22282	21134.293322578245	9.966691489293
0	22287	21136.216209956804	10.384102626332
0	22297	21140.210392362746	1.822276360542
0	22300	21142.021893247711	3.068723649562
0	22315	21149.853119601039	2.382572133974
0	22330	21168.986812318749	1.318097014539
0	22342	21178.732823540148	1.553135478124
0	22347	21180.525256338034	6.284359453815
0	22350	21182.346431725163	3.212412152741
0	22357	21185.148105032328	1.371643120237
0	22370	21190.886621972176	6.887213917894
0	22375	21198.837782714346	1.468662951887
0	22380	21200.520788259504	1.673378985189
0	22385	21204.798544774378	1.334950163029
0	22390	21213.25700001359	1.944429052807
0	22395	21223.395201024116	1.969570105709
0	22400	21227.501282865519	1.74367598854
0	22405	21234.588560100902	1.794942704216
0	22410	21238.092511634526	1.278749236465
0	22420	21243.900841052606	3.48311162833
0	22425	21249.419519288454	1.222513150424
0	22435	21263.744281459848	1.201132168621
0	22447	21268.052186321615	2.434487490648
0	22452	21269.77982078079	2.804515092445
0	22462	21281.545331213787	1.461622604169
0	22470	21285.998502365567	1.513998894207
0	22482	21310.859640931934	1.547581718117
0	22492	21313.481785598435	6.058387493602
0	22521	21327.719583045323	6.831509041843
0	22524	21329.654522667457	3.242638748698
0	22527	21330.998524698247	7.022951706754
0	22530	21332.582294920464	5.631107713507
0	22535	21335.475159492777	1.804617625475
0	22545	21341.774577544657	6.14946293671
0	22550	21353.913420350918	1.939921281487
0	22557	21363.08368861043	1.651528167538
0	22567	21372.869997788569	1.850498568825
0	22572	21374.108899930654	2.411238775713
0	22580	21378.437057235737	1.508213583007
0	22595	21397.610812530164	6.327830257618
0	22614	21412.658197055207	8.461007316134
0	22617	21413.898308781357	4.892679981701
0	22635	21420.45580594466	6.032845753817
0	22657	21443.771064369828	3.453476506836
0	22662	21445.150722128042	2.097748747394
0	22677	21451.310166816886	6.964933668817
0	22680	21453.131371687639	2.234797161946
0	22694	21460.168422290765	4.525715781067
0	22697	21461.589987737023	2.147610918166
0	22710	21469.526140148638	2.591797338314
0	22722	21483.778285187985	1.544025785662
0	22729	21485.104240747857	2.019520631454
0	22732	21486.730426622312	2.33247949503
0	22735	21488.027702724132	2.983075110116
0	22747	21495.115316529681	1.60565754883
0	22752	21496.503024275524	2.353939386915
0	22755	21498.077054987212	2.691664994901
0	22760	21501.857678823124	1.979607050121
0	22790	21530.154699618237	11.407289095217
0	22795	21532.469418880393	1.348865759559
0	22802	21540.125668816836	1.944631783105
0	22805	21541.63511625492	2.16761368488
0	22815	21550.912937963166	5.244151094464
0	22820	21559.767964272449	1.789485336095
0	22827	21569.584999657061	1.912328086793
0	22830	21571.490805128228	2.811026571343
0	22842	21579.012079668591	1.561304290089
0	22845	21580.495561193848	2.111927436344
0	22850	21586.042275676321	1.595018180832
0	22855	21588.100527331132	1.755837665498
0	22870	21606.130770481871	4.564985791221
0	22875	21611.699972402839	8.556888354858
0	22882	21620.435792875026	1.495855835639
0	22885	21621.989347494875	3.034459351174
0	22907	21639.254948343216	1.851420808648
0	22912	21640.993962920709	2.335931576287
0	22927	21647.173994148525	4.485220303447
0	22930	21649.152331699061	2.352796690375
0	22940	21653.615307549807	2.492014013328
0	22954	21659.638017617154	3.333268666355
0	22957	21661.365985749464	2.570070350319
0	22967	21664.341769399855	2.657192887306
0	22990	21680.784802988581	3.080473167614
0	22995	21695.424392740316	1.387948841415
0	23000	21698.940480047179	1.235215888172
0	23005	21702.90107909083	1.643516698293
0	23010	21714.773080695629	1.637872148678
0	23022	21726.586832723063	2.511049004694
0	23030	21729.465324074072	6.000740325079
0	23050	21744.758855900975	1.462526532449
0	23055	21747.33953676441	6.285113891698
0	23062	21749.033959850705	1.652588609979
0	23065	21750.700130041725	2.920460642368
0	23080	21774.342722775766	3.456573943873
0	23085	21779.555351632519	1.330531169847
0	23090	21792.623245348818	1.64392423667
0	23095	21798.194418569325	1.90133648403
0	23102	21805.635483992133	1.425107836723
0	23105	21806.872103044983	2.05110159034
0	23110	21824.407788948772	1.665159458108
0	23115	21829.998105178995	1.304687303118
0	23122	21835.71652512341	1.745004156791
0	23125	21836.986700411469	1.950287003485
0	23130	21841.945789911614	1.749000555091
0	23135	21845.837180066435	1.733619707078
0	23150	21856.530175777195	1.742949515954
0	23155	21858.959352398226	1.405851376802
0	23160	21860.711730438776	1.711253628694
0	23170	21867.04894602121	3.391784817963
0	23180	21872.009285754116	4.702347891852
0	23185	21875.626250149702	1.717618587054
0	23190	21887.510607541262	1.839315374941
0	23195	21892.966091562798	1.271250208281
0	23200	21896.275496452427	1.971564551257
0	23205	21901.655056839017	1.440675697103
0	23212	21915.95085300687	1.311187236384
0	23222	21924.422542298994	1.80044981204
0	23225	21926.372537992	2.255911152909
0	23230	21946.285409802131	1.59401926063
0	23235	21961.717221325185	1.691774178296
0	23247	21971.826351340971	2.52922467542
0	23252	21973.329409901909	2.756772244413
0	23257	21974.537411607168	2.401207945159
0	23262	21975.937941564172	1.640221865311
0	23270	21981.610393799562	1.360442603007
0	23275	21991.88399857173	1.70794072412
0	23280	21999.404203535847	1.657434446923
0	23290	22007.250237338341	1.561229835078
0	23295	22012.166338183279	1.318098969944
0	23305	22027.692500800266	1.760091357306
0	23315	22041.197969655269	1.895450875722
0	23320	22044.784844752337	1.346380727738
0	23330	22052.633292772849	4.290043767077
0	23335	22055.404811019059	1.60905945953
0	23350	22075.553327271924	1.543270750976
0	23360	22105.22318993722	1.49070835337
0	23365	22107.579453506763	1.666532392614
0	23370	22112.229995550826	1.72387732733
0	23382	22125.693201467139	5.175460498984
0	23390	22129.586902022494	1.712436537258
0	23395	22133.496246767135	8.441071524991
0	23402	22153.429731844407	1.950825546123
0	23405	22155.148386402283	3.183848282221
0	23419	22162.529956133198	1.627975931541
0	23422	22164.355880662892	4.959754624962
0	23430	22167.587048484292	3.096099855367
0	23435	22169.658779655994	1.765485103428
0	23440	22182.154193064021	1.912614027597
0	23445	22184.366441347138	1.633483113348
0	23450	22190.967229553384	1.203580074944
0	23455	22194.142910918337	1.673855297267
0	23460	22197.301430325345	1.594968377985
0	23465	22202.026010122677	1.282022494264
0	23470	22216.973196324849	1.835410819948
0	23492	22231.289829696484	2.355064481358
0	23495	22232.835548978813	2.856797646491
0	23500	22256.082243611426	1.910502422228
0	23505	22265.695858934542	1.481108666025
0	23512	22268.466011876635	1.867097664624
0	23519	22270.345982207939	2.373779409875
0	23522	22272.255483897053	3.178310849859
0	23527	22274.081908106268	4.304466709095
0	23574	22288.642278416292	10.310612540981
0	23594	22295.208853820209	1.905106115828
0	23599	22296.800463067052	2.701500715498
0	23610	22314.236911655552	1.915749643743
0	23622	22320.33953650355	3.711196707096
0	23625	22321.801442472298	2.489657009041
0	23630	22330.5451978033	1.437172391452
0	23635	22335.301555140655	1.411614826135
0	23640	22336.835376418551	1.460628828779
0	23645	22346.561074863293	1.826540427655
0	23659	22356.060386054298	2.953714153786
0	23662	22357.484545855118	2.587613125217
0	23672	22363.289776613096	7.561908579664
0	23675	22364.749241746681	2.17142797436
0	23682	22379.153799018332	1.555343555845
0	23690	22382.647044177396	3.627839711789
0	23695	22386.876991761074	1.538476918638
0	23700	22393.022518384925	1.240417651646
0	23710	22397.870543631669	2.255225350226
0	23715	22405.319146297592	1.265590262786
0	23720	22408.235251031897	1.696663275734
0	23725	22412.216785050375	1.775138463452
0	23730	22419.579321828101	1.909083621018
0	23735	22427.35630913569	1.721085900068
0	23745	22442.616052547799	5.7532855336
0	23750	22449.611958047236	1.992634556815
0	23755	22452.575492067898	1.340201166272
0	23760	22462.044429449509	1.54797608424
0	23770	22483.930814013882	3.726926811565
0	23780	22505.463465189283	1.472750005126
0	23800	22539.453595818793	1.951344169118
0	23805	22542.758383602469	1.41121530477
0	23822	22556.862849786448	3.110555607137
0	23835	22562.644332703471	5.19197079648
0	23847	22571.733657864077	5.934087139666
0	23852	22573.138102488933	1.985743367305
0	23855	22575.053351244857	2.424622683514
0	23867	22588.411589209947	1.93392098936
0	23875	22591.543830744575	1.30849146403
0	23884	22595.262760765628	10.147354526942
0	23887	22596.527435387076	2.557231389604
0	23890	22598.220219931715	3.996013337166
0	23895	22600.300459057954	1.911127819493
0	23900	22604.072197271945	1.350056128763
0	23910	22615.584798649428	2.801702963347
0	23915	22620.468050842683	1.538508050703
0	23920	22630.262957506247	1.58052042909
0	23935	22637.301095373792	2.982158565828
0	23950	22651.69107046488	1.641085415147
0	23967	22663.163385902464	7.586835785665
0	23970	22664.497924446806	1.515717944357
0	23977	22684.990893247403	1.419713244401
0	23987	22687.773414256476	1.758173479557
0	23990	22689.13229392083	5.237264385784
0	23995	22694.122566053679	1.815844777785
0	24002	22699.745997307715	1.723387528025
0	24010	22704.169729327492	1.461810394377
0	24027	22718.076485634728	1.557032122463
0	24030	22719.475860229081	2.705140826623
0	24035	22736.895284683662	1.269061811641
0	24049	22749.76337083753	2.938304471891
0	24052	22751.690574801599	4.456216155483
0	24057	22753.598284553622	7.415435854159
0	24065	22757.692733282346	4.66323673947
0	24075	22771.767330154061	1.640348831005
0	24080	22775.094882350865	1.783880621381
0	24107	22784.385856639584	8.500018310525
0	24110	22785.863822717955	6.377093930931
0	24115	22790.164500532899	1.333115765266
0	24124	22792.45296510915	1.766017462313
0	24135	22798.611886783582	7.341417427545
0	24142	22801.3537974513	1.811276282556
0	24145	22802.948108693851	2.223992578671
0	24150	22822.195854142968	1.775639126822
0	24155	22825.612170630135	1.895444254018
0	24165	22829.583070669243	1.599722641706
0	24172	22835.546399946368	1.349968092702
0	24179	22836.845618700838	1.748066102806
0	24182	22838.607930604412	2.141082109748
0	24192	22845.506063855373	1.796334490925
0	24197	22847.39452641283	3.290003980769
0	24212	22864.839849544129	6.584323779886
0	24225	22872.101433937742	2.538786070194
0	24240	22916.943117594902	4.776991630671
0	24245	22928.988073107893	1.827555524744
0	24254	22937.307449092825	1.787299208716
0	24257	22938.514708873925	1.389251476359
0	24267	22956.834194443226	1.471159782633
0	24275	22970.999180962409	1.248755284213
0	24280	22972.379727171191	1.368331974
0	24285	22974.690967448759	1.772735960968
0	24295	22980.758723574993	4.514748596897
0	24302	22995.746246742411	1.44795512557
0	24305	22997.258507637447	2.294944546962
0	24315	23013.868867994018	1.888018303737
0	24320	23018.221808251888	1.693219231255
0	24325	23023.404247186124	1.900157713704
0	24335	23026.521552387063	1.738545160466
0	24347	23031.143383640234	7.713977699354
0	24350	23032.49613513257	1.405468960592
0	24365	23040.48525964486	1.276984892599
0	24372	23045.06223289863	1.771281787008
0	24375	23046.7398131878	2.023014434741
0	24385	23086.602312182225	1.610183230974
0	24395	23090.451232974379	3.691552999107
0	24400	23106.270589139234	1.34847464785
0	24405	23113.010278248868	1.504195536487
0	24412	23162.370818730009	1.328905274905
0	24424	23165.906134586864	1.623789401166
0	24427	23167.200209850156	5.372846414754
0	24430	23168.514241126077	3.608671892408
0	24437	23170.268591566507	1.590850048326
0	24440	23171.901421455603	1.7728332432
0	24445	23174.537997672717	1.998937751167
0	24450	23186.909515685336	1.91412555445
0	24455	23198.558689979795	1.715786194801
0	24467	23209.684823763044	1.710031211376
0	24470	23210.963039906742	1.974046407792
0	24475	23213.585258394845	1.987909996323
0	24480	23217.086107265611	1.795388771966
0	24490	23226.153420642489	3.568814204768
0	24495	23238.263224393371	1.803112057783
0	24505	23246.697047928956	1.523669252917
0	24522	23253.607341220786	12.622590856682
0	24525	23254.934501456839	2.630241614086
0	24530	23257.731710906492	1.842611653171
0	24535	23268.331224506689	1.844578389078
0	24545	23275.519040763106	1.328472827375
0	24550	23278.87168221837	1.302789209411
0	24560	23288.292755897094	1.203580043837
0	24565	23293.39399356876	1.501630281471
0	24572	23310.37800102889	1.806089722365
0	24575	23312.250152630205	2.239638792525
0	24580	23315.232194541505	1.354837277532
0	24595	23328.250907663015	1.617983919568
0	24600	23330.887829062051	1.799771600962
0	24605	23332.408506244026	1.343276754208
0	24610	23348.120787453038	1.446884864196
0	24617	23351.535082957359	1.546992707066
0	24620	23353.199221891561	2.243152524127
0	24636	23359.511180057069	3.704719065123
0	24641	23360.97025238431	4.162357471951
0	24649	23364.20358382265	5.557733022909
0	24652	23366.092334134382	5.862840172898
0	24660	23371.964694513732	14.841849862608
0	24675	23384.297206963037	6.826829799501
0	24680	23397.671778585138	1.980558617786
0	24685	23404.647814787184	1.790551775135
0	24695	23411.932099615007	4.318516549686
0	24700	23416.179344926037	1.788418322429
0	24710	23433.244348934292	1.85698023662
0	24715	23436.14412834544	1.817658198066
0	24722	23458.515797901561	1.806152062118
0	24725	23460.285697859747	2.078842598191
0	24735	23464.46256354027	2.854110893782
0	24745	23486.904551527638	4.043424196377
0	24750	23504.217797676157	1.325697518513
0	24755	23506.148452737794	1.459010038525
0	24770	23513.745094851352	1.810403496958
0	24775	23517.82428679756	1.233692017384
0	24787	23540.364573952907	4.236802946333
0	24795	23548.755031093525	1.413275174983
0	24800	23550.987036012005	1.630945561267
0	24805	23555.322447129227	1.600547442958
0	24815	23561.375455860593	3.93143480681
0	24820	23563.502848080526	1.636769391783
0	24825	23566.047767828434	1.527519851923
0	24834	23575.651678645601	1.860908481479
0	24837	23577.517540546869	3.531522961639
0	24840	23579.197448671599	4.280831445329
0	24847	23586.458912220705	1.361191622354
0	24850	23588.053394882116	2.252786486268
0	24860	23598.598312029946	4.481510248289
0	24875	23617.443911219434	5.083473045191
0	24885	23623.852250211321	4.661835272676
0	24890	23628.261283793786	1.808052557893
0	24907	23643.891352371983	2.463428862793
0	24910	23645.294447477646	4.601894019917
0	24922	23661.759602404618	1.219589197449
0	24925	23663.234320360096	2.011390603721
0	24935	23670.536057453033	3.144643474399
0	24940	23673.01415659748	1.769917190261
0	24950	23680.841371859094	3.924187461935
0	24957	23690.002251711342	1.405551823042
0	24960	23691.583633020561	1.693322533658
0	24965	23707.7988380848	1.759530445747
0	24980	23718.060992195002	5.061228283439
0	25004	23730.341829573186	2.724587837478
0	25009	23731.67551255879	1.743544097503
0	25014	23733.249300253401	2.415779992641
0	25017	23734.722232085662	1.698954287999
0	25040	23743.884279619623	1.885204879194
[...]
6	31430	29843.251224011438	1
6	31431	29843.924955526053	0
6	31440	29850.592655955558	1
6	31442	29851.114871985664	2
6	31444	29851.33801153915	3
6	31445	29851.394914242459	2
6	31448	29852.69365702497	1
6	31451	29854.124588950185	0
6	31455	29855.200148269059	1
6	31457	29855.493519696774	2
6	31458	29855.614230749776	1
6	31461	29856.966128051487	0
6	31465	29857.689307336744	1
6	31466	29858.587939679642	0
6	31480	29879.764754609679	1
6	31481	29880.413720301536	0
6	31485	29881.290710423144	1
6	31486	29881.946578214315	0
6	31510	29916.09374080956	1
6	31511	29916.622710760297	0
6	31535	29931.767331024739	1
6	31536	29932.980729225153	0
6	31540	29933.328744970433	1
6	31542	29934.001769449442	2
6	31543	29934.417692829916	1
6	31546	29936.206294185171	0
6	31550	29936.33771130241	1
6	31551	29937.662257659311	0
6	31555	29938.055857949143	1
6	31556	29939.373683478186	0
6	31567	29942.7325344386	1
6	31568	29943.117968578708	0
6	31580	29947.487238361557	1
6	31581	29947.81470486175	0
7	10645	10016.841538716719	1
7	10646	10018.375678649545	0
7	10675	10071.134947873823	1
7	10676	10071.307546406868	0
7	10700	10078.272183678268	1
7	10716	10084.770561973506	0
7	10780	10130.352836726477	1
7	10781	10130.749356201275	0
7	10932	10309.394393525954	1
7	10934	10310.041392097027	2
7	10948	10315.15062505287	1
7	10951	10316.446182661325	0
7	11010	10384.687991067488	1
7	11011	10384.967808903767	0
7	11090	10464.966835390485	1
7	11096	10468.518730924562	0
7	11190	10564.65709720159	1
7	11191	10565.320964090983	0
7	11430	10796.648669713985	1
7	11431	10797.408364862353	0
7	11520	10862.22714871715	1
7	11521	10863.146797810789	0
7	11545	10890.737591005853	1
7	11546	10891.061578391448	0
7	11560	10895.42581273519	1
7	11566	10898.101928591991	0
7	11595	10921.387940143094	1
7	11596	10922.198239982762	0
7	11620	10939.663197477154	1
7	11621	10939.714360530271	0
7	11710	11049.557908635672	1
7	11726	11055.417131308977	0
7	11750	11063.586739534816	1
7	11756	11066.27466732034	0
7	11760	11066.929301159658	1
7	11761	11068.166592247537	0
7	11790	11108.04567454639	1
7	11791	11109.363176988713	0
7	11820	11134.738801625629	1
7	11821	11135.935559670665	0
7	11927	11249.718287077733	1
7	11946	11256.679798262521	0
7	11960	11265.727867859833	1
7	11961	11267.333978763852	0
7	12000	11316.607515911414	1
7	12001	11316.873075868762	0
7	12167	11520.616657364352	1
7	12171	11522.230447038415	0
7	12190	11531.391508989407	1
7	12191	11532.953923751788	0
7	12395	11725.210787862379	1
7	12396	11726.850496984739	0
7	12594	11892.301717820244	1
7	12601	11893.846989153734	2
7	12608	11897.374548660947	1
7	12612	11897.424321391	2
7	12613	11898.958637921309	1
7	12616	11900.605180309696	0
7	12640	11939.597770794341	1
7	12641	11939.640205539537	0
7	12700	11992.565479875364	1
7	12701	11994.138083462154	0
7	12852	12146.751407661774	1
7	12871	12153.096483234765	0
7	13300	12581.804406057041	1
7	13301	12581.987155693121	0
7	13375	12649.188557110037	1
7	13376	12650.378515084838	0
7	13385	12652.279624280911	1
7	13386	12653.789345232216	0
7	13390	12654.521966139514	1
7	13391	12655.421344412682	0
7	13395	12656.496792036475	1
7	13396	12656.868249512096	0
7	13540	12869.003571168737	1
7	13546	12871.416959050469	0
7	13635	12954.157203875616	1
7	13646	12958.984474987872	0
7	13657	12961.35500023059	1
7	13661	12963.849113908187	0
7	13695	12987.140162769114	1
7	13696	12987.415900138343	0
7	13790	13067.03054190901	1
7	13801	13071.598285792988	0
7	13847	13102.272253667742	1
7	13852	13103.050894491851	2
7	13853	13104.006460469354	1
7	13856	13105.841869328681	0
7	13920	13158.934614000949	1
7	13936	13164.346349350672	0
7	14070	13299.770430432781	1
7	14071	13300.217243441297	0
7	14090	13315.614732376485	1
7	14097	13316.458056431338	2
7	14098	13317.984304496575	1
7	14101	13319.593110396083	0
7	14117	13326.483048667933	1
7	14121	13328.309160897618	0
7	14189	13366.91551287447	1
7	14201	13372.950387196524	0
7	14215	13387.477070761543	1
7	14216	13387.60507234784	0
7	14335	13531.073683466223	1
7	14336	13531.231407281322	0
7	14372	13563.561050604629	1
7	14376	13565.008205152187	0
7	14455	13651.480075509557	1
7	14456	13653.069068670506	0
7	14520	13687.530703450665	1
7	14521	13688.241515860636	0
7	14525	13689.973231738682	1
7	14526	13690.005279828537	0
7	14540	13695.380041008832	1
7	14541	13695.522178059883	0
7	14550	13697.241728950127	1
7	14551	13698.642367121363	0
7	14610	13763.136316640069	1
7	14611	13764.334438905561	0
7	14630	13768.693087915785	1
7	14631	13770.129037864202	0
7	14695	13845.139291633707	1
7	14696	13845.314011786736	0
7	14705	13851.27310097705	1
7	14706	13851.743141218468	0
7	14797	13907.0015895302	1
7	14801	13908.854967913286	0
7	14807	13910.151472216299	1
7	14811	13911.965169379928	0
7	14825	13917.061609038059	1
7	14826	13917.578434591188	0
7	14875	13943.875275854671	1
7	14876	13943.931407632725	0
7	15150	14286.021927078894	1
7	15151	14286.373089894685	0
7	15195	14330.748455068962	1
7	15196	14331.232900774849	0
7	15475	14638.764078703249	1
7	15477	14639.0305556665	2
7	15478	14639.653667891747	1
7	15481	14641.27656272368	0
7	15490	14643.555988294869	1
7	15491	14645.076346053112	0
7	15500	14647.029968064486	1
7	15502	14647.756130190646	2
7	15503	14648.408912430008	1
7	15506	14649.69350969014	0
7	15510	14650.156310607521	1
7	15511	14651.445454971355	0
7	15545	14679.072089844927	1
7	15546	14680.155951362925	0
7	15557	14682.360580020264	1
7	15621	14705.487129233854	0
7	15660	14731.699171278883	1
7	15661	14732.544927471873	0
7	15700	14781.770039571191	1
7	15701	14783.10714598796	0
7	15710	14788.559665177244	1
7	15711	14789.816401893529	0
7	15730	14822.519816050194	1
7	15736	14824.394877128243	0
7	15745	14832.797533383732	1
7	15746	14833.447888382607	0
7	16145	15270.027190397046	1
7	16146	15271.029199786587	0
7	16355	15514.672560176424	1
7	16356	15514.749231317906	0
7	16470	15629.864156313384	1
7	16471	15630.744623623509	0
7	16480	15632.644923714463	1
7	16481	15633.874623202649	0
7	16505	15667.843610096341	1
7	16506	15669.11449892447	0
7	16715	15898.646585824334	1
7	16716	15898.976310563868	0
7	16740	15925.150573887737	1
7	16741	15925.565993908157	0
7	16757	15928.890786735392	1
7	16766	15932.931281489615	0
7	16965	16130.649031389948	1
7	16966	16131.401629856139	0
7	17125	16285.002907686205	1
7	17126	16286.45556334635	0
7	17145	16318.278129209346	1
7	17146	16318.863210102641	0
7	17190	16360.674665373156	1
7	17196	16362.780451898068	0
7	17260	16402.358099667296	1
7	17261	16402.747578510502	0
7	17320	16429.06902896275	1
7	17326	16431.773104208212	0
7	17365	16465.703073998256	1
7	17381	16472.372995843158	0
7	17395	16475.818535699974	1
7	17396	16477.286560240431	0
7	17440	16545.881398514754	1
7	17441	16546.220685581505	0
7	17450	16548.605030059768	1
7	17451	16549.474206192764	0
7	17485	16586.331939209944	1
7	17487	16586.545120315686	2
7	17488	16586.928213766931	1
7	17491	16588.712334091744	0
7	17735	16841.891975549034	1
7	17736	16842.269498250745	0
7	17827	16901.860218270196	1
7	17831	16904.279500713802	0
7	17870	16930.071391887562	1
7	17871	16930.488946390854	0
7	17875	16931.195235827319	1
7	17876	16932.062481695557	0
7	18022	17082.912179631861	1
7	18026	17085.323285369828	0
7	18065	17154.344837286077	1
7	18066	17155.029895570416	0
7	18105	17173.339495798203	1
7	18106	17174.014198684213	0
7	18117	17177.318868973277	1
7	18121	17178.958316437048	0
7	18170	17208.377565769635	1
7	18171	17209.271354996021	0
7	18350	17336.452097682336	1
7	18356	17339.504260908248	0
7	18380	17382.268930040414	1
7	18381	17383.1328420082	0
7	18430	17429.46242393406	1
7	18451	17436.615853855015	0
7	18465	17444.603680652436	1
7	18466	17445.636210024316	0
7	18520	17473.828131476545	1
7	18521	17474.807307346736	0
7	18725	17662.414908451822	1
7	18726	17663.988455263721	0
7	18840	17790.859002657843	1
7	18841	17791.441946434934	0
7	18955	17884.35766127602	1
7	18961	17886.623804717246	0
7	19160	18097.249940631328	1
7	19161	18098.436651301522	0
7	19205	18126.486001640862	1
7	19206	18127.04319676029	0
7	19210	18127.487698605202	1
7	19217	18129.766875433856	2
7	19223	18132.09360794852	1
7	19226	18133.736564831794	0
7	19240	18137.936585339198	1
7	19241	18139.819614296103	0
7	19245	18140.248031514448	1
7	19251	18142.942848501051	0
7	19545	18406.269591443875	1
7	19546	18406.414375104579	0
7	19617	18482.637548670797	1
7	19631	18487.299259412113	0
7	19830	18735.38450944584	1
7	19831	18735.892381135037	0
7	19920	18864.820537492593	1
7	19921	18866.165278170945	0
7	19940	18911.167255944038	1
7	19941	18911.866919191295	0
7	19975	18943.518058227571	1
7	19981	18946.088980135027	0
7	20025	18999.142893364144	1
7	20026	18999.31141221036	0
7	20045	19027.67357387979	1
7	20046	19028.750285476841	0
7	20190	19151.77541604542	1
7	20191	19152.281041910735	0
7	20285	19242.868790714078	1
7	20286	19243.730564924404	0
7	20370	19337.756830713763	1
7	20371	19337.826185469394	0
7	20380	19344.575315885304	1
7	20381	19344.722344489881	0
7	20445	19415.962039133471	1
7	20446	19416.417187889035	0
7	20495	19463.474150775615	1
7	20496	19464.799098249255	0
7	20535	19499.31718049173	1
7	20547	19502.706268884379	2
7	20563	19507.861570594725	1
7	20566	19509.594458523844	0
7	20585	19517.767649367688	1
7	20586	19518.409113625524	0
7	20615	19551.822913718448	1
7	20616	19552.843632072061	0
7	20860	19865.720896243596	1
7	20861	19867.354125346687	0
7	20867	19868.200147120839	1
7	20876	19871.861243377139	0
7	20900	19885.871624484956	1
7	20901	19887.044514683837	0
7	21080	20055.841306887219	1
7	21081	20056.000798019616	0
7	21090	20060.693318190642	1
7	21091	20061.254327909014	0
7	21130	20090.800406908008	1
7	21131	20090.91497018361	0
7	21465	20432.294262024134	1
7	21471	20435.018756184398	0
7	21510	20470.553935415384	1
7	21511	20470.960241584138	0
7	21535	20483.779850882731	1
7	21536	20484.340279738234	0
7	21555	20500.122462639203	1
7	21556	20500.917656161878	0
7	21565	20503.524906798544	1
7	21566	20504.093766667191	0
7	21675	20633.303597006537	1
7	21681	20635.966031811367	0
7	21695	20640.664691900915	1
7	21701	20643.93777451071	0
7	21912	20894.704013789944	1
7	21919	20897.567101197892	2
7	21933	20903.796400069538	1
7	21996	20924.371190524008	0
7	22130	21053.699611168978	1
7	22131	21054.026850928702	0
7	22165	21075.735836689931	1
7	22166	21075.952573501993	0
7	22215	21103.820784156121	1
7	22216	21105.055728059616	0
7	22285	21134.506108228611	1
7	22286	21136.216209956804	0
7	22450	21268.730757496673	1
7	22451	21269.77982078079	0
7	22460	21281.430286404329	1
7	22461	21281.545331213787	0
7	22480	21309.624495535456	1
7	22481	21310.859640931934	0
7	22490	21312.292783986664	1
7	22491	21313.481785598435	0
7	22555	21362.383219550899	1
7	22556	21363.08368861043	0
7	22570	21373.788953908477	1
7	22571	21374.108899930654	0
7	22612	21411.314732120763	1
7	22616	21413.898308781357	0
7	22625	21416.763276277851	1
7	22626	21417.510693647908	0
7	22640	21422.093324206857	1
7	22641	21422.478426376623	0
7	22690	21458.646643988497	1
7	22696	21461.589987737023	0
7	22895	21635.089641726725	1
7	22896	21636.224407669595	0
7	22910	21639.304215611734	1
7	22911	21640.993962920709	0
7	22952	21659.551856929609	1
7	22956	21661.365985749464	0
7	22962	21662.61541802751	1
7	22966	21664.341769399855	0
7	23020	21726.468803868772	1
7	23021	21726.586832723063	0
7	23140	21850.996953208281	1
7	23141	21851.842158595445	0
7	23210	21914.97127500131	1
7	23211	21915.95085300687	0
7	23260	21975.318511627559	1
7	23261	21975.937941564172	0
7	23415	22161.125539537837	1
7	23421	22164.355880662892	0
7	23525	22272.401520916213	1
7	23526	22274.081908106268	0
7	23530	22275.098768283824	1
7	23532	22275.140735462673	2
7	23533	22275.818206070386	1
7	23536	22277.369693096936	0
7	23540	22277.465458514452	1
7	23546	22280.48490157912	0
7	23555	22282.816203871133	1
7	23557	22283.768872271066	2
7	23558	22284.034905939572	1
7	23561	22285.253720795759	0
7	23565	22286.056451201188	1
7	23572	22287.927381023273	2
7	23573	22288.642278416292	1
7	23576	22290.463025194616	0
7	23592	22294.124597688371	1
7	23597	22296.317789538019	2
7	23598	22296.800463067052	1
7	23601	22298.523569666092	0
7	23820	22555.379457708399	1
7	23821	22556.862849786448	0
7	23940	22644.70333246279	1
7	23941	22645.764113035044	0
7	23955	22656.355094308529	1
7	23956	22657.341157860532	0
7	24000	22699.544049185836	1
7	24001	22699.745997307715	0
7	24120	22791.170194635638	1
7	24126	22794.17767143185	0
7	24175	22835.58904911393	1
7	24181	22838.607930604412	0
7	24195	22847.213533505932	1
7	24196	22847.39452641283	0
7	24210	22864.207622908652	1
7	24211	22864.839849544129	0
7	24250	22936.974210894672	1
7	24256	22938.514708873925	0
7	24265	22955.967443445412	1
7	24266	22956.834194443226	0
7	24355	23036.211872710297	1
7	24356	23036.910987360761	0
7	24665	23378.237114732803	1
7	24666	23379.468219786643	0
7	24785	23540.225480598682	1
7	24786	23540.364573952907	0
7	24985	23719.370179764451	1
7	24986	23719.824034090671	0
7	24997	23728.438459850121	1
7	25016	23734.722232085662	0
7	25020	23735.63405597997	1
7	25021	23736.549870209033	0
7	25025	23736.601306716623	1
7	25026	23737.810302693034	0
7	25160	23810.540524508951	1
7	25161	23811.922733940421	0
7	25252	23930.525621999124	1
7	25256	23932.526821459522	0
7	25280	23939.652848148987	1
7	25281	23940.772000782257	0
7	25285	23941.105627857299	1
7	25291	23944.020631028964	0
7	25310	23953.679408606889	1
7	25311	23954.507886328135	0
7	25390	24011.597584732441	1
7	25391	24012.549212815386	0
7	25395	24012.689230047384	1
7	25396	24013.979828356539	0
7	25400	24013.986804874297	1
7	25401	24015.622967456614	0
7	25405	24016.318780533257	1
7	25406	24017.392154600059	0
7	25435	24067.423281147747	1
7	25436	24067.923601537625	0
7	25470	24106.223163463409	1
7	25471	24106.91125393855	0
7	25502	24125.449901596286	1
7	25506	24128.093225006655	0
7	25565	24184.073246485224	1
7	25566	24184.678081698408	0
7	25575	24186.425816331889	1
7	25576	24187.731039987197	0
7	25585	24190.999524314569	1
7	25586	24191.91848277777	0
7	25595	24194.228509158074	1
7	25596	24195.801128275841	0
7	25625	24221.604369302503	1
7	25631	24225.300924756315	0
7	26180	24860.488600543882	1
7	26181	24861.349054588223	0
7	26190	24866.326482672555	1
7	26191	24867.036658741636	0
7	26200	24868.834916687679	1
7	26216	24874.52454428087	0
7	26235	24902.387047309411	1
7	26236	24903.15156581542	0
7	26245	24906.430818212152	1
7	26246	24907.788737433216	0
7	26280	24925.960833433254	1
7	26281	24926.680533046025	0
7	26412	25039.919728850909	1
7	26416	25041.893444510886	0
7	26450	25061.823071111352	1
7	26451	25062.280304857655	0
7	26685	25285.042278140582	1
7	26686	25285.661628497222	0
7	26815	25405.871190571159	1
7	26816	25406.618987950826	0
7	26960	25572.528861783648	1
7	26961	25573.749124227106	0
7	27030	25665.831784131229	1
7	27031	25667.116019773771	0
7	27135	25799.78260001743	1
7	27136	25801.196939370707	0
7	27145	25802.603432989278	1
7	27146	25804.082555105649	0
7	27170	25841.082390920364	1
7	27171	25841.149953144319	0
7	27175	25842.678013708528	1
7	27176	25842.851079655528	0
7	27205	25875.950806128325	1
7	27206	25877.083864515637	0
7	27380	26010.998268725256	1
7	27381	26012.474602009744	0
7	27412	26028.240473853871	1
7	27416	26031.406681092244	0
7	27525	26181.956695239659	1
7	27526	26183.745101777262	0
7	27582	26232.381339133211	1
7	27586	26234.343091023584	0
7	27600	26239.171517028071	1
7	27601	26240.02373962913	0
7	27760	26455.199177354118	1
7	27761	26456.199827428001	0
7	27922	26589.06698164733	1
7	27931	26592.793288008928	0
7	27945	26609.863999567736	1
7	27946	26610.579567324017	0
7	27950	26611.658103492074	1
7	27951	26612.457995230724	0
7	28025	26691.366817037874	1
7	28032	26693.831849518297	2
7	28033	26694.798625594213	1
7	28036	26696.648354850731	0
7	28193	26828.151093434744	1
7	28211	26834.34742899387	2
7	28219	26837.7729055091	3
7	28220	26838.077285645388	2
7	28223	26839.735291214704	1
7	28227	26840.151908243013	2
7	28229	26841.067706695938	3
7	28230	26841.62352842842	2
7	28233	26843.343301425546	1
7	28236	26845.292431007929	0
7	28275	26902.348675040865	1
7	28276	26902.533882727672	0
7	28285	26909.727690913483	1
7	28286	26910.251766590179	0
7	28325	26927.180876869557	1
7	28326	26927.94589998218	0
7	28380	26984.799743335259	1
7	28381	26985.930869006072	0
7	28405	27001.824541748721	1
7	28407	27002.558483212043	2
7	28408	27002.748395582489	1
7	28411	27004.552471111357	0
7	28530	27140.746268886621	1
7	28532	27141.44084346832	2
7	28533	27141.871964527438	1
7	28536	27143.60428247224	0
7	28600	27185.563237033435	1
7	28601	27187.276556729782	0
7	28725	27299.492870817415	1
7	28726	27300.968259039418	0
7	28735	27304.554422684616	1
7	28742	27306.521785376784	2
7	28743	27307.770033650087	1
7	28751	27310.956360494891	0
7	28784	27328.727863923708	1
7	28801	27335.700798514216	0
7	28920	27452.556353598531	1
7	28921	27453.281343765493	0
7	28990	27536.108201149993	1
7	28991	27537.680011097049	0
7	29090	27614.070948622889	1
7	29091	27614.944351610875	0
7	29095	27615.996842655116	1
7	29096	27616.156016092895	0
7	29200	27694.555589491101	1
7	29201	27696.114744373928	0
7	29250	27736.109370082297	1
7	29251	27736.936596294148	0
7	29335	27817.991196670938	1
7	29346	27821.679756470888	0
7	29355	27824.352110052015	1
7	29356	27824.742888976565	0
7	29550	28003.711458301462	1
7	29551	28004.052923644372	0
7	29615	28071.019979795167	1
7	29616	28071.623526384876	0
7	29807	28280.319185405329	1
7	29811	28282.201662321744	0
7	29815	28283.03062639483	1
7	29826	28287.197609877196	0
7	29835	28290.343897909268	1
7	29836	28290.526340774935	0
7	30092	28594.048634571422	1
7	30096	28595.716383203374	0
7	30140	28668.23239336846	1
7	30141	28668.598049709973	0
7	30150	28670.914136243837	1
7	30156	28673.474599060774	0
7	30320	28763.047044735545	1
7	30321	28763.425180688654	0
7	30390	28824.441089555502	1
7	30391	28825.435630967243	0
7	30402	28840.082213430428	1
7	30406	28841.505158002159	0
7	30435	28855.515767678659	1
7	30436	28855.818934732918	0
7	30495	28905.017640465962	1
7	30496	28905.830036650578	0
7	30760	29168.577218699564	1
7	30761	29169.037330360414	0
7	30770	29172.130539094995	1
7	30771	29173.011632943229	0
7	30775	29173.965459651489	1
7	30776	29174.35136535287	0
7	30815	29208.033262983993	1
7	30816	29208.363019222174	0
7	30825	29210.805210869642	1
7	30826	29211.105066832066	0
7	30865	29282.028399468653	1
7	30866	29283.130724420007	0
7	30917	29343.128883587792	1
7	30926	29346.226086121627	0
7	31075	29494.662487512383	1
7	31076	29495.087956952263	0
7	31145	29562.52241902229	1
7	31146	29563.338372966621	0
7	31170	29589.882985381859	1
7	31171	29589.918971932987	0
7	31380	29783.316871076628	1
7	31381	29784.119114704087	0
7	31565	29942.178256926663	1
7	31572	29944.285289848892	2
7	31573	29944.613226012026	1
7	31576	29946.289064982046	0
7	31630	29992.767180832492	1
7	31631	29993.352667846001	0
8	11727	11055.417131308977	1
8	11729	11056.689019155392	0
8	12355	11678.8853460746	1
8	12361	11682.082484466013	0
8	12555	11872.100124853421	1
8	12556	11875.94956819023	0
8	13147	12433.420620423473	1
8	13149	12434.682038786066	0
8	13200	12460.674774929117	1
8	13201	12461.572935623922	0
8	14612	13764.334438905561	1
8	14614	13764.384578609087	0
8	17605	16731.602204703092	1
8	17606	16731.797045630236	0
8	17712	16829.859826469227	1
8	17714	16830.547122799504	0
8	19982	18946.088980135027	1
8	19984	18946.832033502884	0
8	20455	19419.198202343213	1
8	20456	19421.991101607046	0
8	21832	20839.823944763919	1
8	21835	20841.705679881839	2
8	21841	20844.353295735183	1
8	21844	20844.818959410491	0
8	21934	20903.796400069538	1
8	21943	20905.668523253145	0
8	25942	24596.843356654319	1
8	25944	24597.599402963674	0
8	27232	25910.589034257005	1
8	27234	25910.66095101451	0
8	27885	26570.541757113768	1
8	27889	26572.434671193133	0
8	28165	26820.676429100906	1
8	28166	26822.076723780342	0
8	29812	28282.201662321744	1
8	29816	28283.109615064578	0
8	30157	28673.474599060774	1
8	30161	28677.384440396156	0
8	30407	28841.505158002159	1
8	30409	28842.519605861197	0
9	19232	18135.61962897385	1
9	19236	18137.858935552532	0
9	24990	23721.106012390512	1
9	24996	23728.438459850121	0
9	24999	23728.799379383596	1
9	25019	23735.63405597997	0
9	25385	24010.899944336319	1
9	25386	24010.99098070204	0

