version 2
run Third_exit_5-0-20191114-11:42:54-8999
attr configname Third_exit_5
attr datetime 20191114-11:42:54
attr experiment Third_exit_5
attr inifile omnetpp.ini
attr iterationvars ""
attr iterationvarsf ""
attr measurement ""
attr network ResponseTimeNetwork
attr processid 8999
attr repetition 0
attr replication #0
attr resultdir results
attr runnumber 0
attr seedset 0
param **.Source.interArrivalTime exponential(6s)
param **.jobPriority bernoulli(0.8)
param **.PS.serviceTimeU1 "uniform(1.2s, 2.0s)"
param **.PS.serviceTimeU2 "uniform(2.4s, 2.8s)"
param **.SS1.serviceTime exponential(1.4s)
param **.SS2.serviceTime exponential(2s)
param **.PS.exitProbability bernoulli(0.5)

vector 0 ResponseTimeNetwork.sink lifeTimeU1:vector ETV
attr interpolationmode none
attr title "lifetime of arrived jobs U1, vector"
attr unit s
vector 1 ResponseTimeNetwork.sink totalServiceTimeU1:vector ETV
attr interpolationmode none
attr title "the total time spent  by arrived jobs U1, vector"
attr unit s
vector 2 ResponseTimeNetwork.sink lifeTime:vector ETV
attr interpolationmode none
attr title "lifetime of arrived jobs, vector"
attr unit s
vector 3 ResponseTimeNetwork.sink totalServiceTime:vector ETV
attr interpolationmode none
attr title "the total time spent  by arrived jobs, vector"
attr unit s
vector 4 ResponseTimeNetwork.QueueU1 queueLength:vector ETV
attr interpolationmode sample-hold
attr title "queue length, vector"
vector 5 ResponseTimeNetwork.SS1 queueLength:vector ETV
attr interpolationmode sample-hold
attr title "queue length, vector"
vector 6 ResponseTimeNetwork.QueueU2 queueLength:vector ETV
attr interpolationmode sample-hold
attr title "queue length, vector"
vector 7 ResponseTimeNetwork.sink lifeTimeU2:vector ETV
attr interpolationmode none
attr title "lifetime of arrived jobs U2, vector"
attr unit s
vector 8 ResponseTimeNetwork.sink totalServiceTimeU2:vector ETV
attr interpolationmode none
attr title "the total time spent  by arrived jobs U2, vector"
attr unit s
vector 9 ResponseTimeNetwork.SS2 queueLength:vector ETV
attr interpolationmode sample-hold
attr title "queue length, vector"
0	16745	10004.444277739814	9.750523731854
0	16755	10014.504525703711	4.023649525515
0	16767	10021.734213487517	1.312751029432
0	16807	10036.198881727713	13.722107957119
0	16829	10043.585479725085	10.608798479862
0	16856	10050.613136628202	1.508434250086
0	16861	10052.19042346005	13.333080436289
0	16873	10055.337081756188	11.112695506309
0	16878	10056.972543734244	12.400574298402
0	16891	10061.977864915064	44.486655340027
0	16912	10069.489939993366	8.205507058288
0	16922	10072.713416179202	3.020013095448
0	16935	10080.570327048528	4.867832643773
0	16954	10088.564437449219	5.231609726697
0	16959	10090.152606679553	2.870430401854
0	16967	10093.071019481735	9.47369343343
0	16970	10094.870063334571	7.397051648336
0	16975	10096.595092832925	1.20645852536
0	16982	10099.558932223587	1.428272300772
0	16987	10101.050392003401	2.250667108333
0	17017	10118.572170113827	2.158238371125
0	17020	10120.204361936319	4.810273452849
0	17025	10125.739469924074	1.911746345647
0	17030	10136.765622161544	1.316118812747
0	17069	10154.848713637245	13.53184963523
0	17072	10156.466476170634	9.537700345815
0	17090	10186.630781816498	1.711445412412
0	17095	10191.210422037027	1.782782760635
0	17105	10200.594756664147	3.292431345064
0	17115	10204.543475869216	3.259886966815
0	17145	10216.696445502955	4.849014102853
0	17166	10221.791975681564	3.452779331025
0	17171	10223.682853845028	4.315525486273
0	17174	10225.176601364171	5.24359367861
0	17188	10229.051145406706	3.023458291761
0	17191	10230.254435245586	23.905783688087
0	17194	10231.911708078799	14.011052691628
0	17215	10246.502640836015	1.853547863103
0	17220	10250.168154396437	1.651165765338
0	17260	10271.314595006968	14.675261335155
0	17265	10273.903907969296	1.338388539292
0	17297	10292.552047770034	17.355987077869
0	17320	10300.882075796521	21.852992195906
0	17327	10302.96902470828	9.481578214525
0	17332	10304.850000564539	23.649112913264
0	17359	10312.736284344429	7.832028864852
0	17374	10316.871299722762	28.934140501226
0	17377	10318.372000802652	5.21288958954
0	17390	10324.333960178444	1.599820588234
0	17407	10329.694157434215	8.789681775133
0	17410	10330.946605787014	4.630406246335
0	17415	10337.857797486162	1.481501344033
0	17427	10346.87855076777	1.372692500614
0	17430	10348.621421011968	5.288059562238
0	17435	10367.786640194241	1.778627854586
0	17454	10374.271094453113	3.702505282642
0	17457	10375.659002009185	4.35089575722
0	17469	10379.422177759895	8.943455687586
0	17495	10386.034418455289	4.876548963275
0	17500	10387.907495189236	18.046015593409
0	17505	10389.5268645411	8.819770147562
0	17523	10395.993418827804	6.791973526156
0	17526	10397.648977540212	16.765639684848
0	17545	10407.438932027994	1.483763746172
0	17571	10428.490563960298	7.498936615988
0	17594	10436.03924202986	5.229185881948
0	17597	10437.826314012631	10.714143883603
0	17615	10447.627167362436	6.338824217734
0	17637	10455.930156964599	2.000222688673
0	17650	10466.829858296404	1.967426123494
0	17660	10471.422955788786	4.045310138298
0	17667	10475.891537250798	1.919730482623
0	17682	10480.974133061278	5.152945038063
0	17687	10482.629477327722	3.808293654958
0	17702	10489.646737049477	8.412832699985
0	17712	10493.52967613874	16.464842494517
0	17717	10495.039104542267	1.643752827038
0	17730	10499.892992261911	1.490684927266
0	17755	10511.345444814723	17.553244647276
0	17777	10519.774599196241	2.583766457762
0	17809	10529.995531637168	1.848195268773
0	17812	10531.564872338569	17.2126189479
0	17815	10533.487525529919	8.450593402133
0	17822	10543.575249567242	1.530476168729
0	17825	10544.799879207449	1.569815462558
0	17832	10550.907806939624	1.550257607922
0	17850	10561.628264933685	11.20656548091
0	17855	10577.560428775642	1.567205907963
0	17862	10586.566362651374	1.678213667683
0	17870	10589.622331529606	2.31657055849
0	17877	10591.848536507945	1.586690578051
0	17885	10598.201273546181	12.065308040352
0	17890	10603.091287290919	1.512046428956
0	17902	10611.855386233587	1.984369738027
0	17905	10613.363019410964	5.65841863906
0	17922	10619.567928414744	3.484828361531
0	17930	10625.099937390608	9.329284215232
0	17935	10641.608846614985	1.348718793131
0	17940	10645.733696876423	1.716092001647
0	17945	10661.622947369905	1.837900430895
0	17955	10669.506435205501	3.714849220319
0	17974	10674.983452207518	2.701977612535
0	17984	10678.199724263062	4.586903404482
0	17987	10679.906833709513	9.762547880984
0	17990	10681.337955660296	8.210816462192
0	17995	10686.571150875123	1.72378988117
0	18000	10700.284312449326	1.673352742195
0	18005	10701.694622697509	1.326333677396
0	18027	10712.95726791916	1.644291677698
0	18037	10716.154474939011	2.418933927735
0	18042	10717.772918688111	2.532173049954
0	18052	10721.565768264371	16.528911573743
0	18075	10733.185222156995	2.259986185968
0	18080	10738.174335667868	1.628833954968
0	18085	10746.529598409959	1.288820813783
0	18100	10766.201806506397	1.35184305124
0	18105	10768.121723033332	1.391190276481
0	18122	10773.419660543795	16.50954173141
0	18127	10775.197506459574	3.182302402375
0	18135	10780.331750407853	1.355380723625
0	18147	10784.77673163093	2.908831389943
0	18155	10789.950713958984	5.718653320081
0	18187	10809.542375681026	9.476408735059
0	18202	10815.121477404567	2.681495569201
0	18220	10822.071345088922	1.89240063007
0	18225	10830.416732387709	1.947329423204
0	18240	10836.570029322339	4.818150781517
0	18250	10842.595533938376	8.937554713659
0	18265	10852.777672908953	7.57120970693
0	18272	10870.786582420442	1.370156920515
0	18290	10877.467595008578	4.571631466484
0	18300	10882.377399918587	12.156001736856
0	18305	10885.199094794385	1.721421077475
0	18354	10905.228120336575	4.66314791355
0	18362	10908.072742448454	18.663789812923
0	18365	10909.513940428649	4.592057080296
0	18380	10919.198582039909	1.995306309368
0	18400	10929.101990891755	1.534193140641
0	18421	10935.778290774818	2.753182071621
0	18435	10939.443792023841	18.841372779336
0	18438	10941.169776844565	6.072085549126
0	18443	10942.825656587776	10.024985962176
0	18461	10949.476285106275	7.937657971728
0	18464	10951.191052344028	17.48131281365
0	18467	10952.725460125651	13.76429106017
0	18475	10957.780974728303	1.447391341254
0	18480	10961.091034630572	21.702649839039
0	18487	10983.939661369111	1.397765708901
0	18490	10985.764165669504	2.527255373057
0	18510	11007.748799595198	6.128198636004
0	18532	11019.413265334656	1.38076863713
0	18540	11022.305969156187	11.227183448126
0	18567	11034.655414593577	9.654005123124
0	18580	11040.339224502553	14.185593351826
0	18590	11060.399474415957	3.83193649085
0	18595	11064.76528827793	1.300649463758
0	18600	11067.638131383484	1.647385292314
0	18617	11078.062864208541	1.447570283897
0	18644	11088.407884711715	3.150256284597
0	18647	11090.034986109229	13.173155672966
0	18655	11093.42401394652	2.160615402594
0	18665	11100.660543466432	29.904251612419
0	18687	11111.999135260196	7.251620907403
0	18692	11113.593584881635	4.465597220136
0	18695	11115.023806735599	7.455563235826
0	18731	11127.435884846211	4.820985043101
0	18736	11129.122366976947	5.661770773545
0	18739	11130.511194019601	14.445153704743
0	18744	11132.267001169756	6.577525384802
0	18747	11134.169627137691	14.716563607098
0	18750	11135.726687984191	4.794099777659
0	18762	11147.204898038695	4.091248028994
0	18765	11148.937737385186	1.948094010331
0	18789	11179.85458228465	7.647121485459
0	18792	11181.111158961317	3.362960696714
0	18795	11183.018404617234	6.456277747401
0	18800	11184.895315455892	1.365545085445
0	18834	11198.194723945201	3.493593590476
0	18842	11201.32795461239	8.281506240286
0	18906	11223.531321407561	5.623776128797
0	18929	11231.979332891186	11.299749063909
0	18932	11233.546461696257	6.828911700383
0	18957	11242.763311815472	23.299708754327
0	18967	11245.271811490902	22.928926558444
0	18970	11247.038521058508	60.654248780748
0	18993	11252.916279106494	3.613074087304
0	18996	11254.201477137115	5.940068392828
0	18999	11255.502037898358	4.954307846
0	19010	11260.262187049444	11.920911144766
0	19017	11262.314963376779	1.300615440495
0	19022	11263.91022832438	1.642725897448
0	19054	11280.814189249353	1.895639858954
0	19085	11288.650885711955	3.374739085431
0	19103	11295.240836510779	8.421847886729
0	19110	11297.010523246014	26.808842200541
0	19113	11298.52777803407	35.544075907746
0	19120	11300.321968429507	21.389862081425
0	19143	11308.452100518317	8.785427423555
0	19167	11315.179951214016	4.774465842119
0	19177	11317.885135745601	38.344703021734
0	19182	11319.427763801971	5.323009237083
0	19185	11320.754893463263	10.750991165749
0	19188	11322.25215784532	22.313864658264
0	19228	11334.486455651718	1.939006824093
0	19231	11335.931307442087	17.857147169608
0	19244	11341.026445297684	2.632645953402
0	19258	11344.059161459628	2.772163434043
0	19263	11345.833288601759	3.756838522646
0	19301	11358.906261711541	16.446461877101
0	19306	11360.348731846895	5.390714838188
0	19312	11364.252867070187	20.538217985219
0	19322	11367.114062507984	14.883554463373
0	19325	11368.334570572872	9.34710820738
0	19330	11374.584279403261	1.998980315961
0	19345	11386.970643670998	9.948725271036
0	19357	11391.205542542156	9.54407249374
0	19367	11397.179557335528	1.725448400527
0	19370	11399.158615140768	3.19831852758
0	19380	11403.327816185041	4.110193075794
0	19385	11409.773324931448	1.710881603509
0	19390	11419.198334102419	1.242308365554
0	19404	11424.212638150502	2.899517597458
0	19407	11425.651675602581	4.955641479231
0	19430	11435.976938766857	5.214070433091
0	19450	11446.648158746338	22.754481663309
0	19462	11463.399315159636	1.726833778493
0	19465	11464.761919592748	4.323922284134
0	19475	11470.35677068836	4.144939262036
0	19507	11497.955176858534	7.556716800292
0	19510	11499.580580327031	1.951226115084
0	19520	11504.03967279175	9.204485882308
0	19525	11505.54451911338	14.213563401349
0	19535	11514.890795302482	6.168343180223
0	19540	11542.77774894733	1.424007644318
0	19552	11553.566366481511	6.877730669849
0	19555	11555.145697482964	2.475582046903
0	19580	11573.202392252628	10.518406035113
0	19597	11580.941215524147	1.659672566317
0	19602	11582.572335324133	9.011536861207
0	19612	11587.139886586854	5.87844310554
0	19615	11588.760937752688	2.424739711912
0	19632	11597.079443067236	2.815701202743
0	19657	11605.943837215662	15.016099266126
0	19665	11610.607601070658	7.543855534651
0	19680	11618.550171022511	6.977555335635
0	19685	11647.371377144977	1.781174347922
0	19690	11653.929252846514	1.869295398705
0	19695	11682.207148795589	1.949972497858
0	19722	11699.110145414344	3.363077103322
0	19735	11704.789883627383	9.067389343596
0	19770	11739.588951947124	11.50770723886
0	19775	11747.608680387322	1.507616535202
0	19785	11773.538264369106	4.015388061712
0	19790	11775.613995368116	1.692159101926
0	19807	11781.762586695215	4.13324942775
0	19815	11786.33632394391	7.976112607003
0	19834	11796.035779568274	4.985698029771
0	19850	11803.392357637964	1.505302270323
0	19870	11810.886435839141	1.230246836133
0	19875	11812.655966767342	1.523543264531
0	19899	11822.826497131999	17.264455625936
0	19907	11825.496419211518	7.17329251533
0	19915	11829.635447926266	9.49518461556
0	19922	11831.53463407268	1.827452293783
0	19939	11837.118412848415	3.308054917232
0	19963	11844.445689170101	2.921058387391
0	19966	11845.680542820917	9.162260568047
0	19969	11846.900533171223	3.140895798914
0	19972	11848.392072793135	12.506455286321
0	19996	11857.553777838888	4.887236951105
0	19999	11859.235025840829	2.092804482569
0	20010	11863.83452331202	1.632517210006
0	20042	11877.130854948042	1.842490657233
0	20049	11878.397268301239	3.092521301685
0	20062	11883.571069649411	6.101429280151
0	20085	11916.329399084235	1.446680969931
0	20112	11941.280905117915	1.954792721011
0	20115	11942.582629354932	7.907332459419
0	20147	11959.92041155112	7.683332865504
0	20150	11961.294282375584	1.97553899174
0	20170	11977.537014039754	6.28593670336
0	20204	11989.363046618253	2.805960283844
0	20209	11991.12945180431	17.037672148038
0	20219	11994.301287111528	4.381860315923
0	20224	11996.087990189418	4.860739550792
0	20227	11997.879803210012	13.692726093374
0	20247	12005.02127414466	2.453907419319
0	20265	12012.524084408139	16.734943162026
0	20270	12021.611420932322	1.523939768597
0	20280	12038.743179379355	3.10435760854
0	20287	12042.971042332192	1.633473472856
0	20305	12050.004580379872	7.989061444146
0	20320	12055.714967061978	5.125615939498
0	20352	12070.741941831499	1.981528591847
0	20362	12073.894517326407	15.031994215542
0	20379	12078.557711820915	6.3263792509
0	20420	12094.227353016525	9.109591256758
0	20451	12104.335465184134	28.959678412958
0	20464	12108.486737442483	24.531627139016
0	20474	12111.633142094781	2.511914055969
0	20493	12116.668410488871	2.809104630057
0	20496	12118.185190115032	12.784148464669
0	20499	12119.685169836228	4.380763281092
0	20502	12121.254614657258	4.815497518434
0	20535	12134.30460143877	12.049978514548
0	20547	12145.38073780166	3.04201027854
0	20554	12147.165254164692	5.441323068738
0	20565	12152.415303866327	1.518478213064
0	20572	12156.12750394316	1.834605259076
0	20590	12176.063495131148	5.241292129728
0	20605	12189.894053565891	1.587030237354
0	20625	12208.167539196154	2.074344525191
0	20647	12217.882867931383	5.185972464759
0	20654	12219.619092277805	8.27739704866
0	20657	12221.137652159291	3.144930893884
0	20662	12222.718762749801	3.534993556164
0	20680	12233.216283826829	8.391719903562
0	20685	12235.48693154581	13.644715033797
0	20690	12242.589512840954	1.409687465988
0	20714	12254.384544841629	1.950674371737
0	20717	12256.04709259538	8.511337238922
0	20772	12281.136034720466	3.0399861211
0	20784	12284.287034978234	15.232367415687
0	20817	12295.626324880943	18.322004791689
0	20834	12300.578283375341	2.864297729854
0	20837	12301.91519105586	3.855765573311
0	20872	12317.024261732233	14.714442573589
0	20875	12318.239701753129	55.141156919979
0	20892	12325.785875279113	3.46515994582
0	20895	12327.614846735849	8.962961905365
0	20900	12337.229137354055	1.491645110585
0	20915	12344.558423655444	5.825355859027
0	20925	12357.732616467228	3.949120098145
0	20937	12366.344840279273	2.534261701446
0	20940	12367.842731128126	4.837015035004
0	20962	12377.301028331801	6.133498967688
0	20967	12378.95646097666	2.267426337315
0	20970	12380.298415382266	6.193721413985
0	20987	12391.056465050005	3.495845659429
0	20995	12396.156155552054	6.176405329278
0	21005	12405.453439501494	3.625525516441
0	21022	12411.44124702171	3.182564562971
0	21045	12424.973688174392	18.970040723572
0	21050	12429.434007367456	1.824265205115
0	21065	12437.978096369004	4.986075581586
0	21082	12453.188248975986	7.183993265803
0	21107	12466.97860129855	11.811636587408
0	21110	12468.331741709703	2.601264929642
0	21115	12475.68128020297	1.200498301722
0	21122	12479.768605273116	1.580985319614
0	21130	12482.416602106292	2.259304673159
0	21157	12504.566666665406	4.672424806282
0	21165	12507.88087080987	9.528936786209
0	21170	12510.325956967061	1.802580667101
0	21182	12520.088890629264	3.250509570888
0	21185	12521.375828987176	2.842382860137
0	21200	12529.252449314831	6.07166422109
0	21229	12547.934028655883	1.763353988156
0	21232	12549.456029075604	2.430346404445
0	21240	12556.14673649006	9.016812642094
0	21262	12586.283327098162	5.270975306541
0	21292	12597.782426788264	11.235122776035
0	21305	12604.815931573905	12.089469659685
0	21344	12619.517429533863	1.728322016163
0	21349	12621.26156141095	2.978855679171
0	21396	12636.491023708251	4.287744188087
0	21404	12639.458338098716	31.027132632551
0	21410	12642.199195592221	13.857000912017
0	21417	12645.458702888804	14.450731239102
0	21420	12647.220045533495	1.897647688749
0	21427	12653.567861573095	1.672287695855
0	21430	12654.883746675471	2.849418628748
0	21447	12665.342296770931	5.412835714779
0	21457	12669.630672936972	8.942824588294
0	21460	12671.504517672669	2.96120718297
0	21477	12679.558612050237	5.485523857823
0	21480	12680.807409679079	2.580844004984
0	21495	12688.573509337549	6.143950285621
0	21502	12712.756961742438	1.775159193389
0	21507	12714.383390283979	2.186901939789
0	21510	12716.155254278913	2.030838953295
0	21515	12738.99296932898	1.234656437114
0	21530	12762.831766812799	1.809322662838
0	21535	12768.100064951928	1.341613321565
0	21550	12790.937712754744	8.399381732633
0	21557	12798.965517326209	1.883683308214
0	21586	12807.419721324692	4.697450236398
0	21615	12815.749326750027	16.318316046099
0	21625	12818.691100658426	4.986962288967
0	21630	12820.031780656004	13.488828664676
0	21638	12823.485469802977	10.2881515493
0	21641	12825.130580003323	26.642311706869
0	21672	12842.620384449842	1.42343773949
0	21680	12847.700053907764	1.585919846036
0	21692	12852.51054769438	2.343033499281
0	21695	12853.935615611638	4.594289184176
0	21702	12858.96546725967	1.300496306829
0	21710	12862.036473211656	1.412490639878
0	21715	12865.381518961402	1.686443978921
0	21742	12874.450522480851	15.963890357357
0	21747	12876.077490244938	9.866114187853
0	21750	12877.734844938425	2.536810336906
0	21762	12893.483133581427	2.716800277437
0	21765	12895.064869105962	2.056144554083
0	21777	12903.226402157757	2.893540638862
0	21834	12926.319699391843	5.440333522022
0	21854	12933.299302062495	2.051392854583
0	21862	12936.783410042254	3.685843443315
0	21865	12938.343773671901	5.978688568201
0	21892	12951.688141538257	1.498421515299
0	21930	12982.659025760508	3.293806809161
0	21937	12985.675691148593	10.093952049211
0	21947	12989.115589229269	1.896005889773
0	21950	12990.789412179282	11.907999884658
0	21955	12992.360710150192	1.271397014521
0	21967	12999.67694319417	1.62469713185
0	21970	13001.484514278781	2.971667255453
0	21996	13013.072898067427	6.887247159891
0	21999	13014.726093773437	2.051269643376
0	22041	13026.585135907574	4.734211440042
0	22044	13028.396868232718	5.211991203625
0	22055	13030.303570957562	6.039673624622
0	22068	13034.984071543893	26.68416712339
0	22101	13042.351700516125	4.979199638099
0	22104	13044.121852336718	14.796341464922
0	22112	13047.010211342281	16.925917161788
0	22115	13048.631390909186	26.962745538639
0	22123	13051.339289871311	16.202828668282
0	22131	13054.069670282012	46.900779303057
0	22139	13056.552236733293	1.962205624835
0	22147	13059.755738774208	21.094426173222
0	22155	13063.172961142553	2.47925945077
0	22160	13066.404457168515	1.542270567454
0	22170	13081.450610210271	3.27659242427
0	22177	13088.462813019781	1.722108712606
0	22190	13094.755207303751	1.563698549941
0	22200	13104.312967037909	3.501423277669
0	22205	13119.656410773614	1.670421083458
0	22219	13123.631215555566	3.182134292494
0	22224	13124.855977815735	1.442092328841
0	22252	13134.502857402125	2.843589335007
0	22257	13136.100394027279	12.352589583385
0	22260	13137.577554549621	2.179687782049
0	22270	13145.530826468851	5.015342424932
0	22275	13148.189893322085	1.624831074663
0	22280	13151.842546130659	1.774242116325
0	22285	13155.157469062951	1.310162438452
0	22300	13164.518475472812	4.607669813186
0	22319	13174.761584304142	13.353030631134
0	22322	13176.676985168698	2.516075259076
0	22337	13181.500596338193	12.339372960897
0	22345	13188.039478876219	10.866855228986
0	22357	13229.451009241934	2.941865394476
0	22360	13231.104437428783	5.091386348009
0	22367	13238.683694196659	1.470932585746
0	22380	13245.453080196273	1.962167917334
0	22387	13255.233514213154	1.892846841738
0	22397	13258.14698300861	1.321914583389
0	22409	13261.396043464693	2.547222325761
0	22412	13263.379800515587	9.071093625625
0	22420	13267.40771638176	9.613074458729
0	22434	13288.122724058634	2.020850962318
0	22439	13289.64810305067	2.01681689358
0	22442	13291.364359193823	3.640580691633
0	22457	13295.573687475702	10.756980221904
0	22462	13297.185077987952	4.39192595236
0	22465	13298.804069659268	1.637434852049
0	22470	13320.717905424348	1.822546277381
0	22482	13334.795116403868	3.771312796053
0	22512	13349.174596047915	4.265244531885
0	22522	13357.041511963625	1.556902087107
0	22525	13358.323333841879	1.999251344921
0	22530	13375.028156255273	1.719777749293
0	22535	13381.325111604806	1.891704010218
0	22547	13388.373156748774	2.690584980577
0	22576	13397.261063905161	4.744283845873
0	22582	13400.039882452701	3.186728972556
0	22590	13403.243322179754	17.601531127321
0	22595	13406.783477599324	1.952397444472
0	22605	13416.129879124466	6.240619819372
0	22625	13436.424405658489	5.012412731415
0	22630	13439.321628656302	9.035979345075
0	22635	13444.996707681597	1.905054142699
0	22665	13468.802808619564	3.287802114104
0	22675	13488.325579668992	3.59330498541
0	22685	13495.773634580407	5.422279212405
0	22695	13502.484238861066	4.607754021134
0	22720	13516.602228541545	4.834884291437
0	22740	13526.408913811202	7.280580664807
0	22745	13529.481349264835	5.868858563626
0	22750	13537.799085364432	1.997303232178
0	22760	13551.69017591598	1.285311719403
0	22789	13563.208073553563	6.481985161169
0	22814	13570.741307394513	12.608006317702
0	22829	13574.787636632033	10.008216869492
0	22834	13576.425966012225	6.895995546618
0	22870	13596.070818783314	5.789564411501
0	22880	13601.092682950824	3.540706392483
0	22894	13610.239491409945	2.519305676622
0	22897	13611.878754299271	5.160588409007
0	22910	13616.775698204434	1.78185331177
0	22915	13620.322766935425	10.779823123394
0	22930	13633.295241121126	7.785827641036
0	22940	13638.069869109762	3.479148469524
0	22952	13666.94836254662	2.939866570383
0	22957	13668.279068546017	3.998364353946
0	22974	13676.067028545823	1.986645645276
0	22984	13679.430414621394	15.782410098268
0	22987	13680.786045363966	4.565773864519
0	22997	13685.252718374282	10.937379933021
0	23012	13701.611219036972	3.53464773492
0	23015	13702.966968844851	1.537558953413
0	23042	13716.904000934753	6.425294980406
0	23062	13723.137793009894	2.929227549069
0	23075	13728.987836772902	15.493610736989
0	23082	13736.059758545113	1.884645723365
0	23112	13749.632631157199	1.4092630798
0	23117	13751.144686416583	16.120161877656
0	23120	13752.472478259401	1.719304837959
0	23125	13765.548570644416	1.543423065171
0	23142	13788.974315791842	1.819731258042
0	23160	13798.376923174596	1.898848405108
0	23175	13804.478964907349	1.412579672597
0	23180	13807.080610621959	1.88749937471
0	23187	13818.310512673182	1.775685072877
0	23190	13820.245990544071	3.618379958244
0	23200	13836.100263017766	1.80374685917
0	23210	13842.354603137759	1.659297004156
0	23244	13867.342280415554	9.978886191058
0	23247	13868.820076754239	10.604220821539
0	23250	13870.058394984451	13.2963300136
0	23260	13877.34128641474	5.752810020613
0	23265	13880.112159031433	1.249672758952
0	23270	13884.163893667669	1.375772139058
0	23285	13898.34497810625	4.595598821694
0	23307	13905.402365547366	11.723280623125
0	23310	13907.313179716788	13.712243186587
0	23315	13920.618287701105	1.737603243999
0	23320	13928.345988225712	1.426498928666
0	23325	13932.045627589411	1.753676368296
0	23364	13953.828554492581	13.256610482187
0	23375	13959.099983045037	12.871663137545
0	23421	13979.517274140502	3.570027042224
0	23424	13981.173085432435	4.395043264453
0	23427	13982.514581574062	11.576487056265
0	23430	13984.065811454253	19.475748795768
0	23449	13999.48140428224	2.742121404649
0	23452	14000.69074487788	4.061454576253
0	23472	14013.415682612238	1.816984980002
0	23482	14017.232105691982	3.735563547098
0	23485	14018.947499235784	12.003981268011
0	23500	14025.694965990019	5.449801052038
0	23519	14035.898270769906	2.985687188916
0	23530	14040.685744270426	8.231603552848
0	23540	14044.623792528174	1.935663494355
0	23602	14063.876532747457	5.072573838427
0	23615	14069.034690861823	10.796193443677
0	23618	14070.730602480518	7.794720935259
0	23626	14073.666706158081	32.340690403479
0	23629	14074.893989507342	1.558583874207
0	23645	14080.942683308059	2.014434374428
0	23670	14092.595604006157	37.048583477626
0	23689	14121.307199729755	1.450709338114
0	23692	14122.552412229366	2.18649750048
0	23695	14124.347008237577	3.852580934991
0	23700	14139.810663090889	1.572208190896
0	23705	14144.822925068744	1.702524533868
0	23710	14147.858845957565	1.536367735639
0	23764	14178.308247068988	3.376269910053
0	23774	14181.663547673167	17.461637594521
0	23784	14185.279617423282	4.724069295367
0	23792	14188.526563047522	8.026367502919
0	23795	14190.048192118013	28.788637685602
0	23819	14200.804828390956	3.218099438708
0	23829	14204.566940074704	6.99329477176
0	23832	14206.048833064466	3.060565093659
0	23835	14207.933864356867	14.893109673043
0	23850	14219.979744279543	5.420206331721
0	23871	14227.444702465473	1.841667429358
0	23874	14228.773847637525	2.309395534196
0	23891	14234.341727303354	7.331204641847
0	23904	14239.255464494427	9.187009792316
0	23907	14240.520802896668	6.851078701074
0	23946	14263.581339782812	3.575887768335
0	23954	14266.508129740283	7.184115500328
0	23957	14267.923611938171	14.420725675489
0	23970	14275.877233136511	2.7371319642
0	23975	14279.545184075941	1.990745717287
0	23995	14290.90534378959	9.839555547872
0	24002	14293.012165998546	1.33836303819
0	24012	14296.431651680498	3.670318532205
0	24019	14298.16143361046	2.35631480122
0	24022	14299.698268045625	2.860874175617
0	24039	14304.935401326744	7.825243591272
0	24047	14308.132284911117	6.915327360881
0	24072	14315.726026738762	6.886801119563
0	24077	14317.4746329756	8.082386509419
0	24085	14322.477716580854	19.863324997726
0	24095	14334.436954275746	4.177988966324
0	24112	14359.577683090838	7.310630306806
0	24117	14361.289179293486	3.581864159954
0	24125	14365.675147337222	4.537862063922
0	24140	14372.727796896122	4.934043510631
0	24145	14380.396532332688	1.380696225911
0	24165	14390.993639449998	4.35546732727
0	24170	14393.415916454882	1.767294567823
0	24187	14399.81734819904	15.676771117972
0	24224	14414.950950909703	1.845882977918
0	24234	14417.670734149514	9.459316154895
0	24237	14419.492311502917	19.734676266196
0	24247	14422.684044563322	3.011024172274
0	24250	14424.119284650235	6.559733152515
0	24272	14436.915623679843	8.388027329845
0	24275	14438.277265415054	5.158791711424
0	24282	14442.577110466336	1.826488785259
0	24285	14444.057346546625	1.805550888317
0	24290	14454.543461981825	1.423154939152
0	24297	14470.254748958478	1.770135411806
0	24307	14474.475101237501	5.73595230256
0	24310	14475.79315444244	2.024835238343
0	24320	14481.161495158196	3.758425460757
0	24346	14490.067180563557	6.624371368252
0	24353	14491.649754460576	7.798384158051
0	24360	14493.05757586402	4.127451882583
0	24365	14494.376890091459	8.615946210181
0	24371	14497.51430044924	4.692091193054
0	24376	14499.315048411536	6.410852554314
0	24401	14507.133057243424	16.780384409399
0	24411	14510.260531228083	5.136547588355
0	24426	14514.88519666535	9.282361177823
0	24431	14516.726457142505	3.698870163573
0	24450	14521.142803482014	3.820825625615
0	24465	14526.055283230591	11.087546533805
0	24470	14527.871916313331	34.483393739181
0	24473	14529.189603085677	9.667083493136
0	24491	14536.408362027119	6.018588828782
0	24499	14539.874405799667	12.654838677967
0	24530	14552.109329817907	2.000881126062
0	24581	14571.60665167955	15.319294451201
0	24599	14577.501062571195	2.374647856918
0	24610	14582.490854868416	40.779151539516
0	24646	14592.86498615977	2.059949747353
0	24651	14594.302616105532	6.572829835149
0	24654	14596.170829038625	4.086059988509
0	24662	14599.490423676861	12.693968759104
0	24679	14604.052854240616	11.684468174631
0	24682	14605.543585337442	4.312299441535
0	24702	14622.883923372839	2.301445942481
0	24721	14628.548624437329	7.535359982418
0	24729	14631.837891133529	4.773723919806
0	24740	14638.327598361526	14.47415699697
0	24745	14639.740999864484	1.358208910376
0	24750	14652.164187700265	1.866936161928
0	24755	14655.876240344326	1.20980383791
0	24777	14666.568653006833	2.577998410159
0	24780	14668.540401495602	8.215106212355
0	24785	14675.123955554688	1.46719897408
0	24800	14700.371169494096	3.125935308501
0	24817	14708.71707904577	4.318738890811
0	24832	14714.214400793201	2.121497640633
0	24842	14717.511920455568	11.998142837356
0	24860	14737.147104916898	1.729783575034
0	24865	14752.681378863593	1.559724582173
0	24877	14758.445235559695	4.821961005846
0	24880	14760.201823578939	3.01801476075
0	24890	14768.210142607503	4.985542574535
0	24907	14784.586999300085	4.546333056316
0	24922	14790.207465538969	9.884693378946
0	24930	14802.015425237183	1.745860979706
0	24947	14811.289364020543	7.319833231078
0	24960	14816.307587547058	5.466283237618
0	24965	14819.126856841459	7.665723849677
0	24975	14824.217724526701	3.144973677066
0	25002	14856.168302253385	4.755200483563
0	25007	14857.679728068535	5.216847823838
0	25010	14859.186979925756	2.719309960568
0	25015	14872.923264207697	1.29517823942
0	25040	14888.721066780307	5.146821976304
0	25064	14906.926902232734	2.501648835517
0	25067	14908.65401864708	6.219571386729
0	25085	14916.873378302917	4.985450997249
0	25094	14919.496191243707	1.520730189234
0	25099	14921.061296054601	2.641278930505
0	25102	14922.406070154599	3.635724311888
0	25105	14923.671984980508	2.779393798192
0	25115	14930.723178882919	4.305222977071
0	25120	14940.26317834818	1.429669076763
0	25125	14943.168539121251	1.551045837067
0	25147	14955.98005566657	6.638922040086
0	25170	14969.359954832699	1.510557110235
0	25177	14970.799680192242	1.300953992642
0	25182	14972.269605288687	16.291431050874
0	25202	14981.411276185518	9.236335023016
0	25205	14983.190713227173	1.912814548099
0	25229	15001.034722280345	2.777650625227
0	25235	15004.279437096446	3.631795774789
0	25240	15008.329244525838	15.947723111027
0	25257	15021.24124047495	3.297599615877
0	25270	15028.533943731598	7.873009672259
0	25302	15044.738947103082	3.16283870302
0	25307	15046.489412789329	15.288858269138
0	25310	15047.997908891647	7.833158576247
0	25329	15061.273070953104	5.235518102348
0	25339	15064.565572331536	3.188189821818
0	25344	15065.978555606927	1.861203546182
0	25358	15069.518664489563	3.094614925518
0	25385	15076.865007177244	7.541118588893
0	25393	15080.139699776161	14.426389157878
0	25396	15081.70454463369	11.9974329813
0	25475	15106.933130055534	8.371907040082
0	25478	15108.191082165817	5.836150222797
0	25481	15109.457157868574	26.835253185634
0	25502	15117.434476823974	15.583856153085
0	25514	15120.33422469316	13.988208395903
0	25517	15122.011314124856	11.045242359847
0	25532	15126.311898598503	3.129039565496
0	25555	15140.138214470022	18.087721261934
0	25569	15146.808295891471	1.300151455402
0	25577	15150.044438507818	3.542808529275
0	25580	15151.380946050436	8.257676869302
0	25587	15162.787124991255	1.90078239385
0	25597	15167.003420803582	1.716191990674
0	25622	15177.929460753652	3.698709579213
0	25629	15179.882387816871	3.29693856634
0	25637	15183.108412086929	3.530674624025
0	25642	15184.727537138912	13.543082403951
0	25655	15190.685551711303	6.122001880426
0	25672	15232.611534692269	1.289683235623
0	25675	15234.500369802412	2.135493817376
0	25705	15247.481464309934	5.751208995128
0	25710	15248.803865150421	13.002032904677
0	25742	15274.601532133365	4.517659702211
0	25747	15275.93723883822	3.659160322445
0	25757	15281.073433482923	14.472847224725
0	25767	15283.936301043347	2.152292484092
0	25777	15287.800070582892	1.95207820721
0	25780	15289.143564097586	8.908970352486
0	25792	15296.928697890422	3.138771160564
0	25807	15303.169141431354	2.108813090325
0	25827	15309.419682199151	16.31932960731
0	25835	15312.5449670626	9.769269206732
0	25855	15327.118959905678	10.222703003665
0	25860	15329.410714745012	5.399514969948
0	25885	15354.699645532066	4.306251612492
0	25895	15365.538041071057	1.875631751865
0	25909	15374.47798364163	1.931850351952
0	25912	15375.698208167782	7.274122191219
0	25915	15377.234170220798	3.545277094358
0	25944	15385.82870312761	7.463748334809
0	25947	15387.467561946804	9.851426213063
0	25950	15389.123215574393	6.091976584867
0	26004	15404.816117887548	14.75977535074
0	26007	15406.058729519858	15.137129273831
0	26020	15417.293068928765	3.87492728269
0	26042	15432.31344529507	5.684415749403
0	26062	15440.480140653963	2.727776268245
0	26077	15447.09948376039	1.726315701753
0	26080	15449.081815686952	20.591340378834
0	26112	15465.048654771172	7.766190042793
0	26122	15468.964613742889	14.383243464188
0	26125	15470.205093778432	3.158991797583
0	26142	15482.133623519868	24.902250257142
0	26155	15487.110864430063	5.74296263671
0	26167	15490.029388656681	2.686530444831
0	26195	15506.761263992582	3.343755239206
0	26200	15509.491016781248	7.549488241413
0	26210	15517.198999548101	1.303730901144
0	26217	15519.140248981574	1.743523244932
0	26232	15525.675853638533	7.34611632892
0	26235	15527.569805582795	5.607137469575
0	26242	15554.333796910624	1.237156699039
0	26245	15555.54125076631	2.43814077037
0	26252	15582.569746424447	1.502418754622
0	26284	15592.077193686368	2.60689698511
0	26296	15595.337291670034	11.075487835556
0	26306	15598.240547839926	16.902505715251
0	26314	15600.905311063306	8.084854940203
0	26327	15606.467764397395	9.65047548612
0	26330	15608.105545383749	2.34508797846
0	26341	15616.073741120245	1.816573422588
0	26344	15617.888513767864	3.225152308405
0	26377	15634.38318351169	3.567334505156
0	26380	15635.751813647681	20.971368395596
0	26400	15645.802341233075	1.589680592529
0	26410	15649.403266726844	13.415805855377
0	26415	15650.767363997774	14.005238188009
0	26449	15663.701898242187	8.586524946833
0	26474	15672.310361846191	5.99672226315
0	26486	15675.287998327454	39.455264033372
0	26489	15677.101102497829	18.977372014584
0	26492	15679.030778036667	3.984460428561
0	26500	15682.359260157151	2.144919367661
0	26519	15690.822925615168	1.763771767728
0	26547	15702.980292433408	12.73418721437
0	26562	15710.43467543609	1.932842126675
0	26594	15730.064830445285	7.461854659784
0	26611	15735.24654223674	4.590632517084
0	26614	15737.001698133135	5.548001306409
0	26617	15738.840827496135	17.165964881143
0	26625	15745.692555975785	21.738186398852
0	26630	15750.688907953929	1.734974955767
0	26656	15761.944960554507	3.621113855087
0	26664	15765.009206092362	5.843656415958
0	26681	15770.500685034812	13.70506648957
0	26684	15772.114219785229	13.42378753804
0	26687	15773.785732248918	4.686130559486
0	26690	15775.116768727013	4.913960798774
0	26700	15787.048580302235	3.603436658026
0	26715	15803.590164323032	4.620936055627
0	26729	15807.171616391918	3.129841004433
0	26732	15808.525278708978	2.541047573419
0	26735	15809.894640286347	6.213862139545
0	26762	15830.753272687267	6.347479545719
0	26767	15832.130720094773	8.470720545017
0	26775	15835.112760306338	1.214044316486
0	26792	15844.07956821659	4.971293794923
0	26800	15847.103964133022	7.906585212932
0	26810	15867.14299049114	1.337411417998
0	26815	15875.884350191249	1.808727779239
0	26842	15894.121001378968	3.368690827039
0	26874	15904.749937600735	3.701651424012
0	26879	15906.125875811185	18.024860913437
0	26887	15909.124179281945	13.599270568338
0	26895	15913.434336863584	28.168672913096
0	26905	15917.769948647492	4.011342133133
0	26917	15922.018356368432	3.316856025635
0	26925	15925.210982272597	6.668711611151
0	26935	15940.78615658969	6.104243036818
0	26942	15950.915018101382	1.665744495392
0	26955	15960.674861123221	11.397979462133
0	26967	15972.296732493406	3.889196937435
0	26970	15974.140093144318	2.843175107102
0	26987	15982.615926721054	2.201674014766
0	27005	15990.579517911595	11.081838096233
0	27014	16003.749661052026	1.569714589417
0	27022	16006.96506656798	3.294455089605
0	27025	16008.939153368198	6.488357736408
0	27030	16020.755562709468	1.988707038388
0	27045	16050.413078419751	4.960422934996
0	27050	16062.390484720558	1.566029047221
0	27079	16079.783831685863	5.975149281494
0	27097	16085.799206701188	10.704034082653
0	27121	16093.103086171716	10.814385072434
0	27126	16094.970222515285	3.952643538214
0	27141	16099.40948658441	4.422986123124
0	27164	16109.661939910594	16.754940155491
0	27167	16111.193141173925	17.961391133242
0	27197	16124.433505371576	1.338306984492
0	27200	16126.353070696993	14.097471143508
0	27205	16129.172262249459	1.345683034882
0	27234	16144.439421428015	3.210883384202
0	27252	16152.308710009399	1.303020184487
0	27257	16154.287125655989	17.640326865464
0	27260	16155.552067009154	2.220632295344
0	27270	16173.514293541785	6.437166467902
0	27275	16175.796333269476	1.829714626074
0	27294	16189.784861297927	1.567726895242
0	27332	16206.640032482316	7.191859671412
0	27335	16208.330973139388	22.57898405861
0	27340	16212.038198781287	1.852989814244
0	27345	16216.810077794622	1.376511599123
0	27366	16226.117541244186	2.64795070555
0	27369	16227.7698945937	4.151274285952
0	27380	16232.241755048863	11.022124699548
0	27390	16257.464679558765	3.705425183588
0	27400	16280.319158927772	1.891016857005
0	27412	16291.759880909186	2.917501791875
0	27482	16313.696168889284	14.387004243801
0	27488	16316.552424283691	8.092980773382
0	27493	16318.084477731951	19.444297452244
0	27510	16322.416950332367	3.513116801563
0	27515	16324.02729144431	28.9586460379
0	27518	16325.323595152416	26.354404133068
0	27531	16330.618573300907	25.310049216458
0	27557	16341.063012743363	17.132190938774
0	27570	16346.210102515694	1.885410273261
0	27580	16351.37656703762	1.374844590202
0	27622	16368.721158974445	21.88218154626
0	27630	16373.79522067856	8.066228149706
0	27652	16400.955193409439	1.244550216757
0	27660	16405.196217669412	10.540519005786
0	27677	16413.562787347228	1.670865054242
0	27695	16422.168835409055	6.90207503934
0	27702	16425.090169818609	1.231873271801
0	27715	16430.500385068798	5.613071656198
0	27732	16440.088635878759	1.857869224809
0	27735	16441.511233250546	8.425001497177
0	27747	16451.396999868958	1.245584281534
0	27770	16472.091000619924	1.641770862974
0	27780	16478.937950266836	15.125403193339
0	27785	16495.603015180469	1.817124791071
0	27794	16502.36685690836	1.666880689561
0	27797	16504.195111093977	3.416238319181
0	27800	16505.679847675124	3.56462966
0	27805	16522.188038648917	1.542286576331
0	27815	16528.909134651141	3.551438144045
0	27820	16530.271108742976	1.347606857866
0	27827	16556.84245094696	1.25057177227
0	27830	16558.725354547817	2.267696239394
0	27837	16570.068027539811	1.844327006303
0	27840	16571.458828660174	3.042391958966
0	27845	16583.347565181738	1.851384830102
0	27859	16601.57819394777	1.263284811564
0	27862	16603.498746498213	2.74639929014
0	27867	16604.744895512522	3.855862342959
0	27870	16606.669406302743	2.076186421883
0	27882	16659.652298117136	1.746622175165
0	27887	16661.370602203054	1.853358226236
0	27895	16665.057614111055	1.932797097228
0	27905	16673.091641201287	12.733076950338
0	27910	16678.018125107248	1.565660644509
0	27920	16683.809143687788	2.427152764731
0	27942	16693.457859772078	6.096767167583
0	27952	16696.786729991629	1.881353942119
0	27962	16700.868104937097	19.824838484245
0	27967	16702.660990533775	1.867572533324
0	27982	16708.126279205626	1.762841626257
0	27994	16711.482566981559	9.617303700323
0	27997	16712.862725733017	2.657323904079
0	28022	16723.162155314516	6.511776561562
0	28025	16724.683227689545	17.962928271775
0	28035	16730.458528210847	3.933255993225
0	28045	16741.363963259936	1.53190072123
0	28070	16770.620893545816	12.833910035947
0	28075	16778.05164534546	1.36254305914
0	28080	16780.008812586574	1.677453523688
0	28095	16785.742346387132	4.045128886508
0	28100	16800.490429008354	1.210249201767
0	28110	16805.397919638839	3.823542691872
0	28130	16831.216460702605	1.833234780282
0	28169	16845.569512064802	3.603421720414
0	28179	16849.126937654475	11.103136508901
0	28182	16850.463861406269	18.752783596939
0	28197	16864.994917896082	4.335129888921
0	28200	16866.882611860399	2.176607583633
0	28235	16884.400338411755	5.00039549366
0	28247	16888.736494886912	1.639088683762
0	28262	16913.890543837805	1.755437465198
0	28280	16920.543320426084	4.630435460992
0	28295	16930.205654851392	5.202855962142
0	28312	16939.827059273762	13.006155672538
0	28320	16943.381703448219	3.584783245685
0	28325	16949.427520266298	1.383465001732
0	28344	16958.990601020941	2.968874989014
0	28347	16960.926294053981	6.503116188572
0	28355	16964.645314717208	9.156133893897
0	28365	16975.94444665901	1.511218762025
0	28375	16984.723914093599	3.645913068343
0	28392	16994.181039680999	6.320940322249
0	28404	16996.952425194075	3.9927756239
0	28425	17006.746528365259	10.340309973053
0	28450	17013.293947544595	3.853027523918
0	28470	17019.843176517536	6.841961928992
0	28477	17021.313997200963	8.251903744998
0	28488	17026.333588806998	29.686121640461
0	28491	17027.542828196373	16.265775663664
0	28517	17034.281162771296	18.382911448643
0	28522	17035.872317219984	6.88947479313
0	28525	17037.65057716192	29.302860308362
0	28540	17042.197418800455	7.137740764009
0	28550	17045.670909085583	5.513212108048
0	28565	17050.389051989179	5.360680775502
0	28572	17052.219829828378	5.367648644131
0	28577	17053.731048340623	38.710329214679
0	28582	17054.961128485662	15.132771379301
0	28595	17059.724195368675	15.422303046232
0	28606	17064.686422141542	13.03723419569
0	28611	17065.975608337385	11.420832494876
0	28622	17070.508199393836	49.94840300483
0	28661	17083.182764861301	5.69205603272
0	28696	17094.802166562468	1.772686354945
0	28724	17104.019531124398	32.379159806175
0	28739	17110.793436776969	24.401866364372
0	28757	17125.069365729122	1.664534232393
0	28760	17127.067829203709	3.487470654634
0	28765	17147.027008270764	1.943890928105
0	28770	17148.573825490972	1.542919417284
0	28775	17160.91181021939	1.63058081381
0	28794	17172.924936829702	4.273888776637
0	28797	17174.653692969688	3.398902003149
0	28816	17179.253162382551	3.040013871084
0	28821	17180.634274062708	11.289814947622
0	28826	17182.039964255139	3.864310776295
0	28848	17189.013489809825	13.88729298728
0	28851	17190.649835773005	10.316208352868
0	28859	17193.345235930389	4.990960877377
0	28866	17195.048769013403	3.526354681209
0	28874	17198.251788998028	15.131023983337
0	28879	17199.524900205811	5.868233116562
0	28900	17207.123859767043	8.278890880665
0	28924	17215.901206719509	4.250030796043
0	28931	17217.878284380591	3.317781037146
0	28934	17219.720564929588	7.098413847241
0	28956	17226.885604346426	10.29284466405
0	28959	17228.31030223749	3.221575133685
0	28975	17234.828619704837	17.858763450811
0	28987	17239.285957318078	2.913763149512
0	29002	17244.104005577881	4.684669780408
0	29015	17248.827539727685	9.517750707513
0	29027	17258.133442726566	1.475766002565
0	29040	17271.916459096069	1.982525850832
0	29047	17276.681009674884	1.580010715127
0	29079	17291.771369470969	1.722420325316
0	29094	17295.755587365046	20.169441387234
0	29099	17296.976701877951	2.984706013404
0	29109	17300.690968804374	20.728773571129
0	29112	17302.54708800403	5.480196019302
0	29115	17304.005609070264	13.867250541988
0	29136	17313.843390782	5.222473733686
0	29155	17322.294866563762	8.544530080526
0	29170	17328.342890894089	1.776130784675
0	29175	17331.996465883506	21.63295067565
0	29185	17336.668868846505	4.474706604051
0	29190	17338.301327383005	1.367266978323
0	29227	17361.838922593451	6.289578410956
0	29230	17363.564752297743	17.910631476968
0	29239	17373.972294611943	1.57797666993
0	29242	17375.286071436194	1.692094019263
0	29245	17377.207334600662	3.40322922268
0	29254	17395.081136406776	1.75891891811
0	29257	17396.304862559591	2.530839370158
0	29285	17424.857290093923	1.800764971972
0	29302	17432.456674245682	3.57233221165
0	29307	17433.791584906478	1.368482888342
0	29324	17451.036934379049	1.844805692123
0	29341	17455.537895378963	4.294005289381
0	29346	17457.076745622539	5.107983926444
0	29349	17458.722268666261	10.677779519372
0	29377	17468.851288628296	19.205385691306
0	29392	17474.14410663491	23.261913947788
0	29410	17482.070618646858	7.674770367389
0	29436	17488.764082957882	4.933917500354
0	29444	17492.257826148796	4.426525907401
0	29462	17498.183023484874	2.297822792571
0	29465	17499.524339808415	13.253911885311
0	29472	17509.639054695398	1.390780304
0	29482	17513.022823871367	1.992213623018
0	29497	17518.422737906513	2.390350101876
0	29505	17521.872868091439	12.652880268529
0	29510	17524.590756614252	1.760096837208
0	29515	17536.402825561106	1.842660083808
0	29527	17540.587033801495	2.403494476124
0	29530	17541.816074111654	4.426851896197
0	29552	17564.892307948361	10.998164361465
0	29567	17569.550220953712	5.357843969209
0	29570	17571.17534713302	10.165959176684
0	29575	17573.852120153257	1.898814546131
0	29585	17596.60205301676	3.443414207602
0	29590	17610.389653421013	1.227849978954
0	29599	17614.371220984836	1.699590495415
0	29612	17619.162705675108	1.66449271964
0	29615	17620.550166436439	2.988469948415
0	29630	17626.825696381591	13.306957692672
0	29650	17637.861322165555	1.588285620291
0	29660	17642.989946083018	13.603237814504
0	29685	17653.560688977567	13.557909621697
0	29690	17655.983887701039	5.640684239991
0	29721	17668.271843450432	4.420347700189
0	29729	17671.871811277707	9.808983140252
0	29734	17673.524155419049	7.478904908816
0	29737	17675.337311163833	2.11413319048
0	29752	17680.153369942596	1.770975497803
0	29760	17682.927222951231	6.261434227801
0	29775	17706.423051307688	4.505411132786
0	29780	17713.478587880322	1.291941256076
0	29790	17719.124253822519	5.388871949416
0	29800	17732.072010786322	1.487724484131
0	29812	17737.582378395071	3.061806263692
0	29815	17738.857245187631	1.420372094875
0	29829	17746.138229725317	1.659924516082
0	29835	17749.197021113702	3.933935340131
0	29852	17759.290339842408	18.747211699221
0	29869	17764.805141554742	3.099839800796
0	29889	17770.917289451478	6.797157986891
0	29922	17784.939971063784	2.544544740213
0	29925	17786.34226897893	17.781377917519
0	29952	17809.481378374985	7.920462013781
0	29955	17811.217075303747	9.178107561675
0	29977	17827.032823829421	6.822639315073
0	29980	17828.259668880024	6.350144122355
0	29995	17839.312109763058	3.452905682737
0	30005	17846.168697421329	1.644954572059
0	30020	17853.369394499306	5.989039344001
0	30025	17855.463818693816	1.236076335795
0	30045	17873.978437540128	10.263221007095
0	30055	17902.10210346492	3.576601942912
0	30067	17929.528725579215	1.709392492473
0	30080	17939.35421083986	10.220505801194
0	30119	17952.856817364544	8.871927708387
0	30134	17957.556946568787	9.651773199924
0	30137	17958.955854241215	5.146017735064
0	30166	17981.510554471396	2.186162210992
0	30169	17983.069347279489	6.255350948498
0	30208	17993.426261232392	2.397688594295
0	30211	17995.015594780789	17.463841640733
0	30224	17999.934541200259	7.769501894097
0	30227	18001.907130784699	8.991096964236
0	30247	18013.711583398692	7.322509798055
0	30255	18016.548262750394	2.237023206133
0	30262	18018.117802205622	1.411769095995
0	30277	18026.319138519927	3.140081882241
0	30285	18030.158752011969	1.383400607109
0	30290	18035.518805612572	1.505893781409
0	30295	18044.829858565124	1.414025358856
0	30305	18049.30552533726	4.342954133877
0	30325	18060.897936753125	8.814613198774
0	30335	18069.672693604938	1.624065356884
0	30345	18077.369618157138	5.11500040183
0	30350	18083.412921987238	1.442601263151
0	30365	18095.30502781249	5.366773200321
0	30370	18097.842125340153	1.958407872729
0	30389	18103.485137610994	2.259109573533
0	30412	18111.981793977803	12.973467683366
0	30420	18115.305596639046	16.565967151613
0	30437	18133.073324621204	1.730582140945
0	30442	18135.033789463822	5.650574568513
0	30450	18138.640164417798	5.478916989482
0	30479	18148.6841785399	6.432797945021
0	30482	18149.897766623435	10.572377378463
0	30497	18160.56402601027	5.138338845837
0	30505	18163.465972205638	3.074716218444
0	30512	18165.231470760397	1.586472071335
0	30520	18169.204869419879	4.039514748467
0	30525	18178.481071846502	1.620425763167
0	30532	18181.662595457863	1.7569692038
0	30540	18184.939024346334	3.324631505926
0	30545	18190.135090531039	1.318011048995
0	30550	18192.155138826668	1.344642752968
0	30555	18196.516281209338	1.535652641021
0	30560	18229.962461511007	1.251331264898
0	30565	18232.950255436063	1.299442657456
0	30582	18241.898494463365	2.95027956275
0	30585	18243.329744525577	6.202296810314
0	30609	18258.076924418529	6.877076942875
0	30621	18261.408321015222	11.827876712478
0	30629	18264.418607957346	3.573955950605
0	30632	18265.666574431641	8.791121050465
0	30637	18266.971617094299	8.214764644044
0	30652	18274.249611568734	1.795161390491
0	30677	18282.537629363772	4.472064047493
0	30680	18283.947989517536	17.260251403227
0	30690	18290.529508502974	1.49966183845
0	30724	18301.714930205662	4.424815361519
0	30749	18309.371740859802	3.454866072769
0	30757	18312.39873583136	6.601551487047
0	30770	18318.260563972539	25.18987383985
0	30780	18334.744778675986	5.229827873914
0	30792	18349.077325179289	1.543614435568
0	30795	18350.885448723706	3.262578361032
0	30805	18358.484427222966	5.924192115323
0	30822	18366.058765133872	7.008935952056
0	30837	18372.357102919198	10.215778026345
0	30857	18382.771683452458	3.599346239817
0	30860	18383.984875068434	5.060251101478
0	30865	18394.462015102056	1.644789303839
0	30872	18401.311223132295	1.783419035003
0	30902	18413.654820042796	13.238708100821
0	30924	18425.068511955831	19.147754412734
0	30927	18427.030125487242	5.007048925961
0	30930	18428.947062978726	7.595397842303
0	30937	18431.105459010576	1.621981614828
0	30950	18436.616311981668	6.510416919683
0	30992	18461.171390362467	5.566157562247
0	31005	18469.14087511433	8.115171379354
0	31020	18496.772424423393	2.813329162873
0	31025	18498.577398150278	9.40897461319
0	31035	18526.939941705564	1.224927933328
0	31050	18543.709015878006	6.293228178867
0	31062	18550.314456117605	1.66064632367
0	31070	18554.149615771017	7.161568317921
0	31075	18559.381301381108	1.573877275176
0	31097	18569.768185115947	5.43318233649
0	31107	18572.466324320218	2.678534143723
0	31141	18582.208132286711	4.279751423344
0	31162	18587.157650381668	14.731756145407
0	31172	18590.979634166105	8.37824233106
0	31175	18592.921094654655	23.72376113875
0	31195	18599.33977486935	36.150064409523
0	31219	18609.227815296468	20.040853185751
0	31224	18610.639529696447	17.46661952696
0	31229	18612.096136274343	26.261065968097
0	31235	18615.642260567812	36.26051833006
0	31240	18619.10555048868	33.054251346562
0	31245	18624.185896591723	1.219916957989
0	31252	18626.793517532088	1.952578440495
0	31255	18628.090759658702	1.311322205229
0	31335	18677.685398275388	10.728705445495
0	31338	18678.939706924727	5.054237782442
0	31348	18682.600176284818	4.934730278738
0	31359	18688.166041256098	23.504844072635
0	31375	18710.798567819948	1.809660213813
0	31387	18715.240422146337	2.238184945828
0	31412	18723.32794642424	5.68650720359
0	31422	18725.89366283504	1.596131369913
0	31444	18731.924694289022	2.071927473144
0	31449	18733.224949536227	2.984228998668
0	31464	18738.035596111544	3.203942039387
0	31472	18740.517399468028	1.299091475008
0	31517	18765.248441306544	9.174157633824
0	31546	18774.208353049808	4.60155371269
0	31549	18775.917475817107	19.035335721351
0	31557	18778.586912340984	25.739835645099
0	31577	18798.045216490441	2.866995127676
0	31604	18808.285053017389	2.193211141321
0	31607	18809.62767281032	40.789487733315
0	31619	18812.992024345722	1.952009313
0	31632	18817.887852689091	6.144986932985
0	31650	18828.86045109101	21.184918529464
0	31655	18837.185709694297	1.66688142959
0	31665	18863.584458704645	1.766899679229
0	31697	18874.227423088533	1.747883882899
0	31705	18877.707214678409	12.02330823602
0	31715	18903.466498071448	1.551593299769
0	31725	18911.356924957205	3.071738934936
0	31730	18917.850760772756	1.424074804969
0	31735	18921.964910411319	1.457307899557
0	31740	18925.567201828523	1.442245289683
0	31754	18933.983415683823	2.855327012659
0	31757	18935.544859586375	3.777361904988
0	31777	18942.274199202404	11.477979671611
0	31787	18945.604597964631	1.879089124599
0	31795	18949.086281815851	2.336937818853
0	31812	18974.984453874875	1.951965784087
0	31817	18976.245854308318	4.842224251665
0	31837	18983.543883385408	6.356507296332
0	31842	18984.883511912535	9.84498200049
0	31847	18986.283646818894	1.937136589553
0	31850	18987.987622214193	2.547113111887
0	31855	18994.08650171847	1.890430404246
0	31877	19002.696250841923	5.064230759501
0	31880	19004.175896073848	7.946175010317
0	31895	19013.427178861955	7.271506107477
0	31915	19021.059830549419	1.573955954611
0	31920	19023.441862186235	8.601891295928
0	31944	19038.833938467645	2.004853018417
0	31957	19043.843020068996	6.737254426362
0	31964	19045.311204057515	6.916426861489
0	31967	19047.306135245554	2.340552419381
0	32007	19065.456379928221	17.978393274786
0	32015	19069.131134962904	6.9508652011
0	32027	19080.175569290483	3.465236388711
0	32040	19090.311864605407	10.986809757778
0	32045	19102.073801179697	1.698986305483
0	32050	19107.551428129451	1.727290902846
0	32055	19115.694253409103	1.856356880814
0	32062	19121.997366633995	1.967770538293
0	32072	19125.687317802269	5.533082160788
0	32075	19127.095183697041	1.940288755191
0	32092	19148.348294321854	2.072204956809
0	32095	19150.218027859774	8.152923799671
0	32100	19159.45771365327	1.208090697601
0	32115	19182.255320022408	5.567842364302
0	32122	19191.048040926405	1.324107342027
0	32125	19192.85378870307	2.500693942392
0	32148	19200.525241919137	3.072791350973
0	32158	19203.720933957115	4.544666410586
0	32161	19205.238402421303	8.884429309024
0	32181	19211.953224620684	10.413678211805
0	32184	19213.282583379461	17.266293112374
0	32187	19215.234473818256	5.478898928288
0	32217	19230.432188645838	8.88551030422
0	32220	19231.64361816877	1.878790552528
0	32225	19233.740052271204	1.517602149211
0	32230	19243.450323985038	1.421272284351
0	32235	19249.473322443112	1.248391104117
0	32252	19265.031815919678	1.20350469891
0	32275	19286.096559792179	6.938624166836
0	32290	19302.580536654799	6.837401208198
0	32302	19312.433389972968	4.440625741052
0	32317	19317.315242152183	2.570834139219
0	32322	19319.282618645846	7.308015946708
0	32332	19322.54264511232	2.738528630357
0	32337	19323.891737405478	2.434758783063
0	32340	19325.802411712228	2.982701071284
0	32354	19333.234283977388	1.542290451473
0	32370	19340.44270555217	7.680835441877
0	32395	19359.722812080491	9.239069650378
0	32419	19369.078933053671	6.954342379235
0	32426	19370.829889130241	17.596723487129
0	32429	19372.106119427292	16.107108501817
0	32432	19373.598337522542	3.772479666553
0	32440	19376.20705661341	5.672310305209
0	32465	19394.121754006779	17.679051604189
0	32480	19414.982234063582	4.842106574516
0	32485	19438.024162400748	1.985314467363
0	32495	19447.745459832901	2.806566972307
0	32500	19461.535213131235	1.743837348931
0	32512	19466.563076276085	3.648711549752
0	32515	19468.317253245352	5.424311689846
0	32520	19472.643106111695	1.606906171516
0	32529	19476.651276980071	1.718688150309
0	32547	19482.29554557643	2.737454300429
0	32567	19490.405141981154	1.598968980461
0	32572	19491.778316679246	16.278511617238
0	32587	19496.604564638457	10.521179300031
0	32597	19499.447006407774	8.986778525428
0	32627	19516.724865036654	3.216945393772
0	32632	19518.410926918695	2.971027657226
0	32642	19522.001885571713	1.976429360606
0	32674	19535.768498921616	9.239471677905
0	32687	19540.599615441671	3.357844899747
0	32704	19545.390892204119	13.441830583518
0	32707	19546.972963924369	24.404704555483
0	32710	19548.498693221843	3.425957191745
0	32771	19584.091933699972	2.44438364737
0	32796	19592.479018662027	4.343718014782
0	32811	19597.3776151373	15.541378947973
0	32816	19598.707719619474	14.981516431441
0	32831	19602.951036964632	2.619865202376
0	32834	19604.652231949284	8.031738388131
0	32869	19616.022688624725	40.413471132345
0	32874	19617.478668996595	1.496467096026
0	32890	19625.374930855683	3.863571081985
0	32895	19628.638077420195	1.785879286937
0	32907	19646.865279580397	1.871219113842
0	32937	19664.380051594488	1.852292740159
0	32956	19669.809012631401	2.996569282489
0	32964	19672.967007276304	13.853651376687
0	32989	19680.837505795322	13.609000365086
0	33012	19688.416237967875	1.360838035308
0	33027	19693.530107063283	2.925609036696
0	33030	19694.878898649891	1.820584110616
0	33047	19700.690639109605	5.355334401503
0	33052	19702.39668595928	5.788356194372
0	33055	19703.644052028165	2.57548156301
0	33084	19715.534017556802	9.205105478555
0	33094	19718.746921950289	3.765896334134
0	33107	19723.070828320542	6.403403545353
0	33112	19724.846683736788	16.037602512281
0	33125	19730.81293294781	1.59117541071
0	33130	19735.449520625603	12.166105505292
0	33137	19738.97684765523	1.6411800595
0	33144	19740.48250414794	1.934554583834
0	33147	19742.384312377588	3.113681647356
0	33167	19750.529932465789	1.847160280682
0	33172	19752.317628663977	12.303304256438
0	33185	19779.594420074347	1.872369145229
0	33190	19788.381859540901	1.94224111829
0	33195	19791.482147028701	1.770659490302
0	33200	19794.039743540497	1.491157821193
0	33237	19805.8582887659	3.107995168721
0	33259	19812.24854455927	14.166437845863
0	33267	19815.147014107011	14.981477460009
0	33270	19816.636669146657	12.43555078201
0	33273	19818.536921433002	13.192156678899
0	33276	19820.19046100808	12.402968567006
0	33345	19855.213865476745	1.363848325424
0	33367	19877.655711812035	2.010666202852
0	33372	19879.140056593598	4.670313160122
0	33395	19887.852302843955	10.182808502409
0	33415	19915.648003990034	15.69962949558
0	33430	19943.113906793112	5.838065244535
0	33437	19955.916824789539	1.99702941291
0	33440	19957.422892177857	3.35124925306
0	33460	19969.355307935736	8.483790724391
0	33472	19979.795555342095	5.014032585019
0	33482	19983.058216004925	2.265999812103
0	33485	19984.6960979649	5.228486933636
0	33535	20010.691375392703	2.506178574564
0	33544	20013.333787060389	8.238328812849
0	33554	20017.042880578944	3.397534770256
0	33557	20018.428473339276	29.520075364913
0	33585	20037.014111166442	1.409919935092
0	33630	20069.293828594715	5.599168391673
0	33635	20073.092372766697	1.268854642659
0	33647	20083.933162552824	4.917795655955
0	33650	20085.445600879339	2.324845324506
0	33667	20091.505321179074	4.846916912214
0	33670	20093.40302205712	6.699732105231
0	33730	20129.796575305381	27.55950961635
0	33735	20134.608015742063	1.698872840032
0	33747	20142.997983924423	3.853046310688
0	33760	20149.481317087746	6.84329529313
0	33775	20164.361985267643	1.948993149772
0	33780	20168.42674919495	1.629434462078
0	33785	20173.745033543379	1.82561792545
0	33804	20220.03396812938	7.552530752238
0	33809	20221.871133661082	2.950692103779
0	33812	20223.224233950859	4.125818070925
0	33815	20225.009239766559	4.770076786069
0	33840	20248.346325309842	1.99609770216
0	33847	20251.597641885543	1.339241640083
0	33850	20253.124021982291	2.216942408378
0	33860	20258.733613519044	4.660721470773
0	33900	20282.017338624267	10.894528177072
0	33915	20301.349124162407	1.916650805622
0	33922	20320.565461872747	1.231501452066
0	33950	20331.201146974345	9.83572071608
0	33962	20337.412464159321	3.008014401679
0	33974	20341.960551722655	1.292839348875
0	33977	20343.182993612559	8.994068021109
0	33980	20344.5953700417	3.602410206042
0	33985	20349.619674638664	1.226591100171
0	34000	20365.95331333678	8.644873520257
0	34015	20377.010527465735	8.926435455702
0	34025	20385.747415131054	5.037398745083
0	34030	20388.007210826761	1.48814902585
0	34035	20398.853241445274	1.510567166843
0	34040	20410.422775077433	1.840581403114
0	34047	20412.594987919218	1.900761304982
0	34050	20414.057956017963	2.913521321683
0	34057	20416.263854098652	1.675525892153
0	34087	20435.942869362945	6.747314050146
0	34117	20454.245029480905	3.770232993522
0	34137	20466.334017522997	12.89909966822
0	34147	20469.543723954624	1.733476675328
0	34155	20473.746371525467	5.030723470424
0	34170	20484.515584115266	7.26973699008
0	34175	20488.584463499189	1.709784749895
0	34190	20508.502823374465	1.439112335071
0	34195	20510.65593766556	1.34946669843
0	34200	20514.82903750549	1.826948442496
0	34212	20528.503901117918	2.186663539698
0	34217	20529.814346475032	4.335991828516
0	34222	20531.451833780547	2.13334583703
0	34230	20538.555865780263	7.42641185287
0	34242	20554.969690355637	1.85238512441
0	34250	20558.338221587056	7.060182770551
0	34279	20575.643523640551	1.685714390501
0	34284	20577.402127034024	2.435201862999
0	34287	20578.696555754908	12.84106093526
0	34300	20593.568518233159	7.474127585969
0	34310	20602.06033869762	1.675325200148
0	34320	20628.010541063468	1.95669663623
0	34325	20643.940178061926	1.240162548795
0	34330	20649.692497798378	1.929110660963
0	34350	20671.146138751713	10.423424862493
0	34355	20679.125579511159	1.208995700628
0	34365	20689.662621160293	9.564671112285
0	34392	20717.671409359137	2.795826976707
0	34395	20719.028134098398	12.104336876392
0	34405	20728.564055012966	2.836735477691
0	34410	20736.857061948453	1.816821400076
0	34425	20769.290649430706	5.247828011812
0	34440	20777.963728281401	3.647347781339
0	34457	20783.555991108153	11.695064337763
0	34470	20790.712187369503	10.785296039451
0	34512	20806.52958732895	14.335380839168
0	34520	20810.638972516568	12.446007711653
0	34525	20820.364157930728	1.782239681482
0	34539	20827.037121395203	1.653893479006
0	34542	20828.34242452811	2.027891616424
0	34547	20829.641998961191	2.652058120731
0	34579	20838.506196187432	6.07342577902
0	34582	20840.420667899582	16.353838752397
0	34587	20841.896763972561	11.26972604834
0	34590	20843.352674101661	1.543844604362
0	34600	20857.089475326619	3.546086520809
0	34610	20868.515019462914	1.714339471795
0	34647	20881.82059652322	9.636393387961
0	34650	20883.260207659575	13.434217482991
0	34670	20890.852811498806	7.296189891047
0	34680	20910.168298611224	3.414227461755
0	34690	20917.569523631272	1.549528024904
0	34705	20924.408400367313	12.205958983805
0	34720	20932.849065110051	7.266649645226
0	34730	20939.721873604738	1.528125045821
0	34740	20953.671567865196	5.969883940849
0	34745	20956.554240765235	1.880189098045
0	34756	20959.489641090138	1.788273427077
0	34776	20965.931143096303	7.123016928612
0	34784	20969.352985029695	11.411774915919
0	34853	20994.371837947714	1.850164376406
0	34856	20995.655551398742	15.839066963263
0	34871	21000.098889816935	18.324418837451
0	34879	21003.177740268233	2.489298749579
0	34887	21006.558767588447	10.371643061687
0	34940	21032.392413181845	1.407496407442
0	34950	21041.967619043716	3.258172267003
0	34955	21045.81628002015	1.827685746551
0	34964	21053.162192247925	1.965556056425
0	34969	21054.525116310758	2.523294724922
0	34972	21055.730934145046	3.205856981262
0	34975	21057.40734780219	2.915382377774
0	34980	21059.467735218021	1.239597430453
0	34985	21069.447004403682	1.317894062027
0	35025	21108.68234637849	1.443672478572
0	35035	21116.393298862452	4.110332346805
0	35045	21120.153295473401	3.303128800275
0	35050	21121.628226296561	1.469226551801
0	35060	21125.596270033531	2.195085884396
0	35065	21128.473470547948	6.441845505278
0	35072	21141.760722490886	1.91765780393
0	35099	21157.796237385882	16.53271022477
0	35102	21159.225938976234	9.029370709654
0	35112	21164.24008012896	1.482252322324
0	35120	21167.678123630232	10.241182767741
0	35127	21170.952732636254	1.425886607915
0	35130	21172.392642327245	2.30176089866
0	35142	21181.835445823419	1.86543072667
0	35154	21184.804945596579	2.140344757149
0	35164	21188.169912899744	3.014297694867
0	35182	21194.408813333296	14.182777167602
0	35190	21198.381952636566	1.626864659041
0	35206	21212.073517918201	1.303004463017
0	35237	21220.271634109119	3.739007280879
0	35240	21221.866698037075	4.979023791232
0	35253	21226.406042079986	12.453933788214
0	35288	21238.197138652354	27.065893005885
0	35308	21244.71775635682	9.493464084082
0	35313	21246.498214351721	41.084388983902
0	35316	21248.317563241497	4.664579672704
0	35319	21249.623192551509	33.443729098819
0	35332	21254.162919405811	2.556602182672
0	35370	21272.680510191335	4.989621781661
0	35397	21283.741729004455	23.928440364392
0	35440	21295.177323837166	8.470986016749
0	35455	21300.177717712668	7.153451543069
0	35465	21303.168493379985	6.613858414185
0	35468	21304.524069411826	12.979589837605
0	35491	21312.024242970866	12.301671473189
0	35498	21313.282007280697	5.341005118705
0	35515	21318.820404761244	13.002936191785
0	35525	21322.249983902421	37.291047972091
0	35536	21327.482802668173	13.718980208371
0	35543	21329.040417830233	48.347568395733
0	35551	21332.134901975427	3.106389935393
0	35554	21333.474967117381	15.87514973684
0	35569	21338.554969863739	3.094125759329
0	35584	21343.424130095501	3.315479103398
0	35587	21344.695413586457	5.319393910809
0	35606	21352.074481907419	3.764411126967
0	35614	21355.286941111206	6.97891583722
0	35632	21361.710392999795	9.839417974811
0	35645	21366.959086456817	6.087264941568
0	35650	21368.605658677331	19.947844575639
0	35670	21381.771061536009	7.577229733678
0	35677	21391.719610233815	1.619660572708
0	35704	21401.17041955513	3.866193739666
0	35709	21402.444508595365	6.504783890385
0	35712	21403.971262433353	13.589276157852
0	35724	21409.97866053488	1.563755668141
0	35727	21411.619358769058	9.438778744563
0	35730	21413.22928743679	3.2607186661
0	35735	21417.846282530363	1.231690791622
0	35745	21424.219724493038	4.766284754519
0	35750	21432.741486151587	1.205578370392
0	35755	21438.995051147914	1.232953676395
0	35765	21453.632993452773	1.360502866097
0	35770	21458.641534569353	1.721505819447
0	35775	21464.643575437038	1.620639907941
0	35802	21488.706630179165	6.278072233123
0	35815	21494.875743208827	1.581375242956
0	35820	21498.911845947991	1.250817797333
0	35835	21508.543874111368	4.910407964884
0	35874	21522.381551934595	17.183348375545
0	35904	21531.935385217203	12.756578919719
0	35916	21535.280383094085	21.46165397277
0	35921	21537.251000973453	10.394119308778
0	35929	21540.932559973059	3.609427674774
0	35937	21544.429354029765	3.040161775716
0	35952	21549.799622876273	23.707923072595
0	35957	21551.538408392185	2.745766754764
0	35984	21568.137100267263	1.642422873341
0	35995	21569.85215983581	8.900432353044
0	35998	21571.446970127562	8.529446605391
0	36017	21576.192360867041	7.484106034676
0	36060	21591.924984501342	23.4562935784
0	36065	21593.682251045893	24.804566701591
0	36077	21596.804228821251	23.355414088279
0	36080	21598.30120109808	30.051110165228
0	36094	21604.75509209432	22.413307325328
0	36116	21611.002671705785	2.332681082444
0	36136	21617.72562855691	2.58968867069
0	36139	21619.469477335962	12.921370436887
0	36165	21631.352116923378	10.942590169241
0	36197	21646.196139888114	11.89813072683
0	36210	21650.859852837885	12.046553187931
0	36215	21652.858278979727	4.871157950229
0	36220	21658.560195764011	1.595369251259
0	36249	21671.871603670427	13.246329280148
0	36259	21675.278913436168	4.039113582711
0	36262	21676.775910669648	2.744146245658
0	36279	21681.895283677255	2.700355375389
0	36282	21683.284034967807	3.332124633696
0	36295	21689.61134990369	3.241047777839
0	36300	21694.470753048657	25.448468636562
0	36307	21707.428521242882	1.679717512056
0	36310	21708.815909566316	2.838766182753
0	36315	21715.096207062206	1.952638980933
0	36345	21728.511566526936	11.069640691988
0	36350	21737.783839619229	1.62719646953
0	36360	21745.876162602526	3.472356425437
0	36367	21756.863809840238	1.639916921034
0	36370	21758.086944887085	2.050393629789
0	36384	21772.364876610605	1.521536616236
0	36387	21774.150742351828	2.704058939739
0	36421	21783.536600342679	7.416941784509
0	36424	21784.958517124045	7.59239914389
0	36446	21791.78577853563	3.835512679243
0	36449	21793.098913532782	4.90104749804
0	36468	21798.037326486508	10.489703068445
0	36484	21805.029741444538	7.881037084883
0	36509	21813.183323151343	5.542685229881
0	36527	21819.930696905705	22.445192402405
0	36532	21821.344976022954	2.226755946901
0	36545	21827.389838961937	7.215190077226
0	36555	21833.959498514868	5.311061843805
0	36565	21838.754205802862	2.37612856203
0	36579	21846.50824240654	2.530439476654
0	36592	21854.812779539271	8.912472308565
0	36595	21856.691380672722	2.554870363001
0	36607	21875.233996610305	3.742942695835
0	36615	21879.813482407044	5.622111573424
0	36630	21893.629395630916	5.084188370302
0	36637	21909.371667224016	1.395781914517
0	36640	21910.598998457972	1.838923225219
0	36645	21913.202706028674	1.677455616184
0	36650	21923.731979609345	1.298701104894
0	36655	21936.652891263632	1.66003632769
0	36665	21945.458140849597	3.627804090108
0	36670	21954.056909591447	1.313347022794
0	36690	21967.79642720058	1.942893549986
0	36695	21969.796466490924	6.575867706436
0	36702	21975.498990993264	1.423249174282
0	36720	21983.751278819356	8.439752196689
0	36732	21988.76619773005	3.622842936993
0	36742	21992.480515188187	1.669367364235
0	36781	22005.553995856989	7.010359140033
0	36786	22007.078099698733	4.91526929622
0	36814	22017.001446184863	13.36414280621
0	36819	22018.901626118061	4.138176498579
0	36827	22022.153909974707	20.583463318961
0	36830	22023.462035181721	22.187667839417
0	36852	22036.673023639878	1.616744995303
0	36855	22038.248520137442	6.776898866692
0	36860	22044.002725607801	1.92820611801
0	36865	22076.641341939378	1.921723347716
0	36870	22080.424891152876	1.93630981613
0	36875	22086.320510333064	1.747942011617
0	36880	22088.129710997761	1.317124131881
0	36885	22091.973437852055	1.431604572199
0	36895	22103.39674221959	3.317074933217
0	36900	22110.257935065086	10.307617334591
0	36925	22121.713088248848	11.219505186706
0	36930	22129.397570340534	1.838076210022
0	36935	22142.780850004113	1.81386063192
0	36940	22146.316671193431	1.364898294583
0	36967	22172.874229402736	1.285437469098
0	36970	22174.773899086274	10.129830700924
0	36980	22180.465730228725	4.303242981337
0	36985	22185.296448504689	1.326017967425
0	36990	22190.214959953541	1.808867703751
0	37002	22195.264450078776	3.175201895281
0	37005	22197.076423598399	2.492890843894
0	37010	22202.778445140495	1.292982771248
0	37015	22209.643397377724	1.569078454375
0	37037	22223.631936934922	6.637296299003
0	37040	22225.626226089481	4.013252459176
0	37055	22234.80652215119	15.440101389747
0	37062	22238.211013343318	1.901869782805
0	37075	22243.199911262581	5.183833519831
0	37085	22256.087607858085	4.261174174379
0	37092	22261.67524663894	1.735851835273
0	37112	22267.802449422995	2.206024280752
0	37132	22275.390556182209	6.564159164358
0	37157	22282.87172272686	4.848547474761
0	37165	22286.97728162968	22.253909732867
0	37180	22297.758273204433	2.012048582163
0	37190	22303.057696990954	10.320358934963
0	37218	22312.09264894553	7.015584783815
0	37228	22315.112626422536	9.815213060676
0	37236	22318.264707628232	7.879501035899
0	37253	22323.50112941951	13.118464761389
0	37258	22325.038352188063	5.42520426923
0	37270	22328.072552161259	21.188856795743
0	37290	22334.028239583936	7.51571549772
0	37298	22337.585657340814	16.203786141735
0	37301	22339.230765886944	7.580093844727
0	37312	22343.892714052986	23.237515318972
0	37317	22345.804944955524	36.526397658964
0	37326	22347.04337679908	21.497815967668
0	37334	22350.304180227744	3.612277987178
0	37339	22352.237794630195	5.281289510453
0	37361	22359.247637671384	7.118561803554
0	37364	22360.796372602846	3.500593694349
0	37367	22362.018772955205	15.39989551985
0	37395	22379.591499409984	3.341373517446
0	37400	22382.242765652066	1.489252153039
0	37430	22402.670908243281	12.335117561069
0	37440	22407.831267950881	1.3334274536
0	37449	22412.831053130206	1.753210736811
0	37454	22414.667565417353	2.73111777696
0	37457	22416.537770227034	3.379324010844
0	37467	22419.588369187776	2.785194895362
0	37474	22421.338379323732	1.918680335181
0	37477	22423.017710351821	1.977004024072
0	37490	22429.817539686156	1.673099211417
0	37509	22436.857132722601	2.931776374438
0	37514	22438.622298056796	3.173491705817
0	37517	22439.980631640717	6.479934562183
0	37562	22477.26271826582	10.099725674857
0	37572	22480.404424751121	17.932150306597
0	37580	22485.886470180401	1.785267703049
0	37621	22505.727253919696	8.09167776239
0	37669	22521.367589895284	27.223876050584
0	37672	22523.157964178963	24.915723450333
0	37675	22524.519158671467	15.298563977005
0	37692	22532.06367974925	6.736944963952
0	37699	22533.846502502925	2.200372803478
0	37720	22541.785087271591	9.612451691081
0	37740	22561.301648700947	1.521109194122
0	37777	22581.408490518969	2.128025734225
0	37792	22588.031316556852	19.067441039018
0	37795	22589.516924435343	2.254175297743
0	37805	22609.399422065937	4.247073597411
0	37812	22610.704400385652	1.259786501154
0	37815	22612.234430615712	1.595230652307
0	37822	22616.59102743988	1.339931519888
0	37837	22621.543750418355	2.240339617416
0	37845	22633.661493591098	1.301192622632
0	37855	22662.596085103272	3.694855766243
0	37860	22667.55884981356	1.466130897775
0	37870	22675.120137700352	4.355799187531
0	37882	22700.550001882143	6.529281542699
0	37885	22702.008041025825	1.712397795419
0	37890	22711.9555814664	1.391253774799
0	37895	22714.324755971048	1.879576773196
0	37905	22724.199691718366	3.325176054955
0	37925	22731.795085070901	6.29744722487
0	37932	22734.401883032865	9.86215556979
0	37935	22735.820904240145	2.896150938066
0	37942	22737.383464187589	1.469504721649
0	37957	22745.228981055079	2.038536676788
0	37967	22750.005746791151	1.751956906915
0	37970	22751.936030542862	15.473781439592
0	37994	22780.705188812623	5.742530719778
0	38002	22783.887697076733	4.084140541242
0	38010	22788.614879780914	15.09474640538
0	38017	22789.991161408441	1.276672040112
0	38025	22793.576422459697	4.60030854055
0	38035	22800.250299329817	4.191514651092
0	38047	22805.321863444865	2.349012030365
0	38062	22811.334209094888	1.881783868559
0	38085	22824.461844764768	17.218146874822
0	38110	22844.034618386053	8.307363229445
0	38117	22850.500341878744	1.498488946445
0	38135	22858.457820960666	8.678070519677
0	38145	22866.509203227677	1.478020420484
0	38150	22872.442779729587	1.872562057897
0	38157	22874.986614580189	1.565942944027
0	38164	22876.392986983915	1.637765306654
0	38169	22878.165493752544	3.119700225167
0	38177	22881.283652745483	4.650118501064
0	38194	22886.26432987388	3.08775127357
0	38202	22889.924765697976	3.725482898389
0	38237	22898.407996570988	5.317947867935
0	38252	22902.781684173754	27.420412356158
0	38262	22905.959099448955	23.844407798966
0	38282	22912.679982902034	21.900410009105
0	38295	22917.851098533272	11.365921394387
0	38317	22923.627484608739	19.954507391868
0	38337	22930.78607447531	33.163195702145
0	38340	22932.031315504498	38.71456796726
0	38352	22935.387231159507	37.990099720315
0	38355	22936.615599176026	9.090958789289
0	38358	22938.106701837405	18.433210908143
0	38363	22939.827784745506	19.786242933062
0	38368	22941.034002240486	7.895664152471
0	38371	22942.51360051196	41.085320952917
0	38374	22944.499933919794	10.841321475953
0	38377	22946.397866462096	7.262018349174
0	38385	22952.958380485996	12.165095754273
0	38400	22965.04694115587	8.525357556077
0	38432	22981.9406354843	8.435009643783
0	38442	22984.554203863843	2.507675870064
0	38455	22990.166326520042	14.84743551723
0	38467	22995.048663028294	1.330251164357
0	38485	23004.448232219273	12.60840260008
0	38490	23011.205970137735	1.20181136094
0	38520	23028.940070243058	4.759411441062
0	38544	23043.172423966903	1.210229674354
0	38547	23045.030068441782	2.252256118446
0	38560	23052.384027140912	2.002063983622
0	38597	23070.298090622465	12.887741613666
0	38604	23072.25996368591	6.371951671213
0	38617	23077.39349538971	17.691831298308
0	38627	23080.116551250296	2.042076848727
0	38640	23084.600776544103	5.711775451391
0	38647	23091.714788952831	1.753527519479
0	38650	23093.164626915183	2.924533371728
0	38662	23108.744772584462	5.056205591056
0	38670	23112.227224764631	3.789738047513
0	38689	23118.788110366696	6.001662327845
0	38697	23121.559946280205	3.057408821336
0	38720	23130.3181892914	12.538678638042
0	38725	23133.206281089193	1.631976992078
0	38740	23146.920077479051	8.229859049109
0	38745	23151.493710861819	1.868417076953
0	38750	23158.43969833324	1.75859023314
0	38765	23167.83834786327	7.401472604648
0	38772	23175.964231122166	1.688532222249
0	38775	23177.849218435466	2.642735619513
0	38780	23180.375842813463	1.509798497893
0	38792	23188.636611414775	1.314372842945
0	38805	23192.967367566567	1.531977437075
0	38815	23199.051206273192	14.500776782946
0	38834	23208.795192205637	2.986168981926
0	38837	23210.497978661313	8.271284531822
0	38849	23217.611947678475	1.699825359322
0	38852	23218.858098321295	2.718543950234
0	38867	23224.54787080161	1.356595521048
0	38870	23226.143271727336	5.329885381132
0	38875	23231.906303103129	1.557419999316
0	38907	23248.201884106173	2.939382462399
0	38919	23252.147267914505	11.445458637852
0	38924	23253.924238488392	20.082538670194
0	38929	23255.86923232259	10.885472472142
0	38932	23257.734924805106	4.882422029994
0	38935	23259.480415351817	22.593124548875
0	38959	23279.340448058543	1.939820772594
0	38962	23280.825047198457	3.396372839662
0	38965	23282.313345223998	7.552885586295
0	38975	23288.854059892525	3.302971202904
0	38980	23294.855845865543	1.227858199738
0	38985	23298.617813355163	1.286886264011
0	38997	23307.290903399811	6.351982133809
0	39010	23314.093537517328	7.564475158466
0	39032	23331.593322446613	8.577573995695
0	39062	23344.598921982998	3.093170824056
0	39067	23346.176667746397	17.127059710596
0	39075	23352.98157637139	1.363739274628
0	39084	23355.565201554257	1.470294078253
0	39121	23367.189402984636	11.792455292721
0	39126	23368.941288751731	3.163933360605
0	39129	23370.679573833192	16.481232389676
0	39132	23372.583585341083	9.516708845655
0	39145	23379.019423538643	2.672624088769
0	39159	23390.339497925339	1.560315196961
0	39177	23398.11251691821	7.830905661483
0	39190	23403.95081376136	14.723993462187
0	39212	23420.652337299167	9.238786957305
0	39217	23422.093807648188	2.995856004097
0	39220	23423.512729733503	1.805426585609
0	39225	23432.352596890016	1.732295474969
0	39264	23455.136618581658	10.160893539463
0	39271	23456.976368879584	3.127529156613
0	39274	23458.265785822888	17.228581260413
0	39289	23463.448401807677	6.643853389112
0	39294	23464.813209899198	3.155121246343
0	39299	23466.055395731758	3.484130470084
0	39302	23467.906462987754	2.675899410318
0	39327	23479.688863380796	4.957342281982
0	39357	23501.560221796324	5.308113599765
0	39360	23503.257923453887	8.93295932694
0	39377	23517.132911404555	1.921525254846
0	39395	23523.817262520676	5.787193295355
0	39415	23530.311716101936	1.463040130958
0	39425	23534.941558724045	2.404947500425
0	39475	23557.635650790323	9.763632071609
0	39480	23559.365993010279	12.223672586306
0	39485	23561.030683984075	8.268450997505
0	39488	23562.446032974337	4.20709014991
0	39500	23566.03556214555	2.689963806503
[...]
8	27875	16650.818641641837	1.856390328519
8	28040	16736.329398744866	1.26600492429
8	28087	16781.739386513917	1.273267554678
8	28125	16812.192718767023	6.048188708469
8	28149	16838.073971320047	1.8625512667
8	28185	16852.451891950379	6.968853854441
8	28215	16875.680176949804	6.316153268724
8	28255	16893.112819039638	19.048769029317
8	28277	16918.939706358984	3.580767218653
8	28360	16973.734579941508	1.969950952195
8	28629	17072.367713545163	1.859514151327
8	28669	17086.148544561245	1.730955926329
8	28719	17102.5721088176	12.400542659643
8	28742	17112.224139441486	6.003491836144
8	28750	17116.234127149332	4.009987707846
8	28905	17208.845225236407	7.266739386665
8	28982	17237.51867337143	10.237760918497
8	29007	17245.894589244109	7.778069139228
8	29030	17259.666386635995	4.385636826715
8	29035	17261.852751851509	1.649185342528
8	29062	17281.545453247613	1.684973800741
8	29149	17319.381152904229	1.898022030666
8	29270	17403.829062604833	7.524200045242
8	29280	17419.87161190987	3.85106011981
8	29310	17435.608153722559	7.950821652476
8	29374	17467.157573765979	1.320874214731
8	29385	17472.317246011362	1.475797061063
8	29452	17495.045380928631	12.889227373632
8	29502	17520.141779752274	1.719041845761
8	29609	17617.825203369153	1.639774435759
8	29709	17664.790502950651	4.106363039933
8	29757	17681.388871802678	3.470167884605
8	29765	17686.599505549441	1.750134875998
8	29807	17735.75408694761	7.683876435808
8	29857	17761.127866512506	1.837526670098
8	29884	17768.922679679437	1.294792412221
8	29895	17774.258919297499	17.83049228287
8	29972	17825.380273178847	1.47657460589
8	30000	17842.611173428817	13.322053981096
8	30060	17906.244270900161	1.560665804148
8	30097	17947.464669289105	6.871221975609
8	30142	17960.846801746302	5.576214872642
8	30145	17962.137073427849	1.290271681547
8	30201	17991.765772641421	5.386619253018
8	30230	18003.829992913799	3.309374855775
8	30274	18024.759132259055	10.883487865517
8	30280	18028.127634156211	1.808495636284
8	30332	18068.410101358182	1.820084307529
8	30362	18093.39916794482	1.57979625687
8	30425	18117.018899206275	9.700679916608
8	30485	18151.619720552092	1.721953928657
8	30732	18305.128493932318	12.254117198302
8	30785	18339.397926487785	1.463209449686
8	30845	18376.454605007603	4.097502088405
8	30957	18449.039491484356	1.837946800329
8	30972	18454.73549780232	1.867805866897
8	30987	18459.862130549561	9.118529229102
8	31030	18513.73011074758	1.966683705896
8	31262	18642.744921774564	1.765046866983
8	31285	18656.716727533479	13.971805758915
8	31356	18686.173408727145	1.760770471394
8	31362	18689.59639160352	8.126882423369
8	31365	18690.888576926647	1.292185323127
8	31370	18703.304671120203	1.838456514291
8	31392	18716.687738950493	3.224433460698
8	31452	18734.662140481115	5.547291848809
8	31477	18742.512809470051	15.188240229011
8	31485	18747.157288396926	7.192526447795
8	31520	18766.689521374968	1.441080068424
8	31692	18872.775520316792	14.409051214165
8	31710	18881.765440359782	1.882761946693
8	31800	18950.766988208757	12.544868941149
8	31910	19019.442542038169	4.206979774706
8	31937	19036.92278641607	5.896924909833
8	31972	19049.147168674089	1.841033428535
8	32110	19180.540959771698	1.961653994955
8	32178	19210.063684826619	1.646176777035
8	32202	19222.805837094453	7.571363276197
8	32260	19268.382997556869	10.88431500389
8	32287	19301.179301921672	1.313612806611
8	32327	19321.257929064228	1.975310418382
8	32362	19336.441797353154	2.912607933357
8	32470	19397.357659037328	10.575093860971
8	32539	19479.634758890896	1.744146642648
8	32666	19532.0227232071	35.46873355842
8	32747	19570.0708920781	4.4732261744
8	32750	19571.334518467864	15.733377307118
8	32877	19619.291110733986	7.206327828637
8	32880	19620.845236151755	5.843802458935
8	32900	19635.391301711561	1.554614842869
8	32915	19651.755506507501	4.890226927104
8	32977	19678.058507064432	13.64441933271
8	32997	19684.004201265499	10.590034799619
8	33002	19685.328903752826	3.824326588574
8	33017	19690.041052275565	1.62481430769
8	33022	19691.785723568727	5.07435407124
8	33180	19760.127071307098	7.809442643121
8	33292	19826.356436810837	6.165975802757
8	33319	19843.069662549225	3.787386688156
8	33327	19845.768222386827	9.251732738477
8	33332	19847.164593271976	19.236180016602
8	33350	19857.314655108653	10.150061836677
8	33355	19869.917211778511	1.421675475314
8	33392	19886.227193538909	1.656442508847
8	33457	19967.605930281616	1.406856923364
8	33577	20027.424255934469	8.995782595193
8	33580	20028.912152313925	3.385962925566
8	33590	20041.22719443346	1.865310969576
8	33595	20045.697014336308	1.424140019901
8	33620	20058.518082130554	11.176643331287
8	33707	20119.702499111166	1.393759889901
8	33717	20122.778128333186	1.52014064081
8	33770	20161.474513975627	3.254690874969
8	33830	20234.636933439095	6.235839739528
8	33835	20244.830225743299	1.984410662018
8	33870	20265.244914609629	3.141300195871
8	33882	20274.774814222919	1.658800551482
8	33905	20287.313971160825	8.116746549738
8	33910	20293.802585982985	1.280523987673
8	33937	20325.31300563505	4.747543762303
8	34060	20417.745789260749	1.481935162097
8	34065	20428.447604859074	1.398121589981
8	34105	20447.11445018772	17.380901025382
8	34142	20467.894309335752	3.886211073984
8	34180	20499.499135369752	1.258568088152
8	34185	20506.518967976893	1.910283369198
8	34290	20580.645039415539	1.948483660631
8	34305	20599.966783613643	1.932521040179
8	34315	20613.448984476366	1.541542169079
8	34402	20726.843702072146	1.598610405065
8	34482	20795.318796106028	1.722108393162
8	34605	20863.643139803272	1.758123448119
8	34665	20888.281519170722	3.77395229309
8	34725	20935.571949558105	1.54296950791
8	34781	20967.393682623682	1.462539527379
8	34807	20980.652913675468	1.584631927311
8	34824	20986.278244273747	13.273408852804
8	34890	21008.206007462005	3.723905380838
8	34917	21023.647671669066	29.34267730344
8	34932	21028.700351719724	13.673752644881
8	34935	21029.957675012739	2.832161123398
8	35002	21078.940901680325	8.037765628678
8	35015	21084.947681413185	6.00677973286
8	35020	21088.470242626093	6.839578737225
8	35135	21179.427701654861	1.60227941256
8	35172	21190.948681940784	1.208137332276
8	35185	21196.106342647382	1.697529314086
8	35329	21252.749018505738	7.946764902302
8	35335	21255.693020143137	3.627304248772
8	35352	21266.83611136218	1.269892132655
8	35574	21339.945222359855	3.584885448268
8	35590	21346.468903999922	4.270602069391
8	35627	21359.940591862012	1.482820812985
8	35667	21380.224926865744	3.381050399836
8	35760	21441.968218186504	1.376610730961
8	35785	21476.580412111339	4.874382460561
8	35810	21492.115478964982	3.408848785817
8	35852	21513.787300928316	3.449230866339
8	35934	21542.62057683455	1.688016861491
8	35942	21546.357867016328	1.928512986563
8	35960	21553.324735598715	1.78632720653
8	35965	21556.547553839531	1.321917219087
8	36086	21601.848767560947	1.824409820512
8	36091	21603.499799514602	1.651031953655
8	36144	21620.724085931333	5.667552017842
8	36152	21623.971906544493	7.224361893222
8	36332	21723.099926879373	3.690691742892
8	36434	21787.911728885311	1.447564662062
8	36492	21807.947697807947	9.533225607534
8	36517	21815.91329658451	9.806718454581
8	36540	21825.35533418542	1.792871245369
8	36585	21850.281415265456	11.974556275405
8	36680	21962.99854918373	6.470635536757
8	36735	21990.301870841913	1.535673111863
8	36757	21999.576789628672	7.096274440485
8	36794	22010.629003834139	1.619622885436
8	36802	22013.950096780781	1.64222713206
8	36835	22029.996677732285	1.59540155977
8	36842	22031.937152905045	1.742867496237
8	36922	22119.992321556612	1.264140828513
8	36945	22162.768053891363	1.60681380555
8	37100	22264.236374678245	2.561128039305
8	37385	22371.987862168957	9.969089213752
8	37485	22426.98764874497	19.265519931957
8	37520	22441.295656357497	5.540423085018
8	37530	22465.961501936141	1.722280675918
8	37537	22468.395398490644	1.385406180657
8	37567	22479.055709810499	1.792991544679
8	37575	22481.998606514502	1.594181763381
8	37666	22520.166534678495	6.073470038027
8	37735	22553.802104157603	16.997752119249
8	37750	22566.866198972893	5.017040039712
8	37840	22623.41804518756	5.481972950632
8	38050	22807.19996407979	3.69244345491
8	38090	22826.044509204706	5.243511228561
8	38105	22840.287078469431	3.192127432142
8	38140	22863.629064925292	1.887145669758
8	38409	22973.721531308471	1.390215219371
8	38437	22983.158031841769	1.217396357469
8	38500	23015.051322654832	3.640614901605
8	38505	23016.979757712553	1.424712273665
8	38567	23057.519402954933	23.215001806014
8	38637	23083.336380767712	7.400296608989
8	38717	23128.786027963762	4.940605015267
8	38855	23220.501743636912	10.902149602527
8	38940	23272.434465685681	1.644091753475
8	39047	23336.466575062596	1.949790883251
8	39070	23347.382390148061	1.205722401664
8	39150	23380.567314078847	7.983728737764
8	39205	23417.406636436924	1.221573113091
8	39284	23461.948257813659	1.831655336916
8	39317	23476.197414445274	8.29095145752
8	39335	23483.25711508135	3.568251700554
8	39402	23525.447942349294	1.58657589294
8	39410	23528.716124638794	16.605872230594
8	39422	23533.733878056853	1.577264358848
8	39430	23542.412351573419	1.292740833759
8	39508	23569.127245060567	1.434628658369
8	39517	23573.697540002528	1.416360273212
8	39542	23580.896337438287	3.749192519346
8	39545	23582.227700087713	9.040826883837
8	39650	23635.073905298292	1.981394856423
8	39862	23762.267930990442	11.236141265901
8	39865	23763.595823908395	1.327892917953
8	39915	23819.238043318953	5.500716143043
8	39925	23831.591098852988	6.20913927655
8	40007	23865.704526289985	4.850208742795
8	40010	23866.963934922278	5.461517785513
8	40077	23938.798760456273	5.232209324681
8	40152	23964.081730235453	5.177457831855
8	40197	23980.034731556515	5.708733566695
8	40215	23998.278565631103	1.520498496294
8	40372	24126.127788632227	1.901554436237
8	40397	24148.79889211181	1.513816809468
8	40405	24152.227592625389	7.62859822088
8	40495	24225.980132696702	1.29357313104
8	40505	24241.702277836787	1.608374551125
8	40515	24247.676298999917	4.730744269484
8	40550	24293.852505372602	1.660605182499
8	40590	24318.832555849649	10.103263743768
8	40670	24367.797794543439	1.588081322797
8	40729	24390.347140393713	1.347628448345
8	40740	24394.895579256983	1.237678699195
8	40745	24397.730044988325	13.505023639865
8	40755	24411.000083163797	1.55871162843
8	40846	24450.177763432216	1.998454515822
8	40854	24453.41040247823	6.932176939245
8	40862	24456.968850455944	4.285182372727
8	41014	24516.979057222138	1.404472949542
8	41040	24527.8290789744	8.067066202416
8	41045	24534.57245514776	1.742181447335
8	41080	24555.7505321813	1.661319245398
8	41115	24580.967838785139	1.339209926315
8	41294	24644.27208368998	1.329281686991
8	41302	24647.252882027216	13.789067125596
8	41352	24669.310220949301	8.215337691046
8	41365	24678.590287452752	3.354409923794
8	41520	24738.988853245587	1.317561442219
8	41702	24837.214956567992	6.988859595661
8	41787	24874.153980127843	1.589877176471
8	41820	24889.541229148706	1.781343065202
8	41947	24954.961231316098	4.352048729243
8	41977	24965.600898171609	3.473581691887
8	42055	25021.971913387791	1.470146821626
8	42072	25029.078210234883	1.468802434392
8	42090	25060.505600971458	1.734777665511
8	42140	25083.25691047099	14.266522627847
8	42217	25116.326157904834	20.234368763152
8	42239	25122.309247905248	3.025469117079
8	42249	25125.713717374251	1.855831720121
8	42287	25138.53332748902	1.646696964651
8	42476	25242.15140292992	11.053737790825
8	42484	25245.970537665795	1.857726383209
8	42505	25258.052352165176	28.782836069206
8	42724	25398.581744071794	1.549620844424
8	42799	25439.403334596943	1.50576101616
8	42805	25442.422427328121	1.239759641513
8	42895	25489.111418613398	10.879599285055
8	43132	25591.289257515766	1.555629391223
8	43157	25603.490867264277	1.464928132109
8	43217	25639.831318261814	1.385492936522
8	43237	25647.051888741097	3.893008387969
8	43310	25684.974498925354	1.556516575068
8	43445	25789.996010398139	6.951446196716
8	43502	25863.2444417698	1.730775451474
8	43525	25882.020008057685	1.991669213772
8	43575	25909.254094212509	1.374612952583
8	43695	25959.106223960083	7.413302159017
8	43717	26012.429750643462	1.372135167383
8	43750	26028.896119052929	20.040859549611
8	43799	26057.9868981264	1.413139571808
8	43809	26060.932958193816	4.202164292389
8	43817	26064.275166158884	1.359992637485
8	43890	26090.861973063314	10.979454786827
8	43975	26129.340912750747	5.659437782625
8	44000	26137.085099966013	1.783781025186
8	44097	26196.943759029917	1.543368050642
8	44227	26278.515133990594	1.755667304434
8	44230	26280.271926220753	3.465006195987
8	44237	26287.836831747467	1.487015949935
8	44255	26294.633774198132	3.609748196187
8	44370	26376.182622820504	1.975313526578
8	44435	26400.596084847142	4.237989714899
8	44465	26424.234569077653	11.308361218507
8	44565	26474.20372596515	1.206638856046
8	44597	26487.243596501662	7.095998083416
8	44679	26532.443754818864	1.572800889239
8	44802	26572.999457887522	13.087832269095
8	44805	26574.999299043379	6.914124276576
8	44835	26600.343496574602	1.814389952272
8	44977	26697.471190033233	3.820990637821
8	45015	26712.043396056396	1.828500666469
8	45035	26722.640964236411	5.990648597362
8	45080	26751.629525834691	5.4374447867
8	45127	26774.724330298893	1.349505974911
8	45304	26830.159248754999	1.401698384061
8	45339	26841.282037463097	1.834920709021
8	45412	26872.520653304899	3.884962725995
8	45420	26876.316043272309	8.711697431014
8	45520	26910.591138744133	4.304844147187
8	45530	26918.329517582107	3.814004139126
8	45625	26982.22170471131	8.243591283427
8	45660	27023.400081719834	1.265520201437
8	45747	27081.970142473467	8.674417188031
8	45787	27097.724472018575	1.365930460952
8	45810	27120.832245319757	1.669514015317
8	45959	27187.807938399493	1.405298331752
8	45979	27194.352537198877	1.916767008789
8	46006	27202.235300207464	18.241759212189
8	46015	27206.357759140571	1.269893133454
8	46027	27209.823856531451	1.465891959332
8	46070	27240.563535312326	1.340212901123
8	46140	27300.396827088151	18.695586765833
8	46167	27312.162726883721	1.863211594708
8	46260	27358.338158095165	7.808808433349
8	46287	27381.833392949125	1.44780171141
8	46421	27425.896320260572	1.629614699632
8	46429	27429.331657479773	1.524283233471
8	46456	27436.894991312432	3.658050771135
8	46464	27439.787054302613	4.967215741982
8	46475	27446.119528840045	4.846857773006
8	46555	27490.727952346195	15.553871113763
8	46602	27513.325188201592	29.232272449039
8	46720	27616.501115989895	1.902529762685
8	46845	27700.996127710464	8.239047663036
8	46850	27703.640953758472	7.513071074105
8	46882	27716.81334114088	4.722578210848
8	46965	27743.267968246474	13.07374304111
8	46977	27749.756210273421	1.461345144548
8	47085	27795.808497010367	12.060973384168
8	47249	27895.773593476204	12.655003618466
8	47259	27898.704596381983	3.153789289648
8	47401	27945.192704492621	4.171713872183
8	47407	27948.762596716359	1.811713426188
8	47415	27952.637952864466	6.265147371077
8	47450	27995.392975509454	1.254362499714
8	47530	28050.215415365781	12.236931785652
8	47542	28066.274564726976	1.481093119644
8	47552	28070.381765230287	6.910621835067
8	47555	28072.097584820639	4.437233537659
8	47577	28091.243572769715	6.304167147434
8	47620	28124.812822146194	15.410790859473
8	47627	28143.871598484797	1.337370284833
8	47742	28201.008519868139	1.820096987672
8	47745	28202.639998278353	1.631478410214
8	47790	28241.200580441634	1.706101384945
8	47862	28279.887177963114	15.988461139855
8	47887	28291.444145193649	8.658310538361
8	48017	28351.812922546354	1.928133600764
8	48094	28378.556532935425	1.490751237795
8	48102	28381.42187248785	3.726295488146
8	48189	28431.757248655015	11.554521674784
8	48230	28448.288996488969	16.854434839528
8	48235	28463.324930296225	1.74708563257
8	48300	28497.671844380345	14.811163913734
8	48337	28523.24786277825	1.700796988048
8	48362	28540.934281589843	1.876562816836
8	48365	28542.515128878511	1.580847288668
8	48370	28551.039475165464	1.786355923489
8	48455	28607.260216911543	6.228160123742
8	48475	28619.92225634743	1.891625775211
8	48585	28676.091093802725	4.357105946042
8	48602	28685.306296822333	4.953789734417
8	48617	28690.790129057409	1.779689932801
8	48637	28698.738442622492	7.948313565083
8	48876	28796.550136762179	8.542306237339
8	48881	28798.228714774988	1.678578012809
8	48896	28802.689333239078	1.277508257329
8	48902	28806.249896249987	1.622251877189
8	48934	28816.582455448873	6.009057842328
8	48954	28823.30923747278	10.991656710013
8	48992	28853.442515130359	3.643461433532
8	49064	28904.883821119102	1.885085799545
8	49152	28975.17967484149	18.664009661928
8	49231	29016.592587751553	7.297241921993
8	49254	29025.3315322645	1.635156150348
8	49266	29028.498237039893	9.000704919367
8	49280	29035.652019071019	11.96062081456
8	49380	29121.028089987074	8.567464824432
8	49543	29179.890256872041	3.388640264652
8	49552	29184.255826447172	1.661743991822
8	49584	29197.52357319371	20.692252232551
8	49590	29200.858634387899	8.39047560555
8	49635	29224.439229894193	9.362471931718
8	49692	29276.598237009112	1.6129821904
8	49712	29295.24986772797	4.537681515925
8	49917	29372.236140651783	10.792968206191
8	49937	29378.884962259946	11.910440928354
8	49995	29423.057440972295	1.586502369121
8	50020	29432.641978960094	1.743704665825
8	50030	29436.847600936919	7.737093775839
8	50114	29491.697787440889	16.379391943248
8	50170	29511.878624306963	8.72052327798
8	50277	29554.311332117136	13.44971658559
8	50322	29579.916891373156	1.461804798059
8	50345	29591.162179832453	25.649557027802
8	50524	29684.963913765761	1.817646284401
8	50534	29688.526417006577	3.803529249293
8	50544	29692.333245675477	1.94547449965
8	50552	29695.666192615802	11.856915724874
8	50610	29724.931223836755	4.675891122318
8	50655	29749.80198663533	1.916974061914
8	50660	29755.164653889444	1.384683883935
8	50722	29778.26496924017	11.947593030503
8	50865	29859.73818955359	1.214947815984
8	50892	29884.336377964197	9.144803550097
8	50914	29891.090158855012	1.862835653871
8	50950	29907.741977905077	1.435169473663
8	50964	29915.383674987713	1.311443562433
8	51052	29968.848552810649	1.542735781893
9	20007	11862.318832707609	1
9	20011	11863.89363394555	0
9	21650	12829.744892714309	1
9	21651	12831.504220563388	0
9	21655	12832.836194800428	1
9	21656	12834.829171966862	0
9	21660	12836.739666820232	1
9	21661	12839.930583236138	0
9	21785	12906.299334994357	1
9	21789	12913.113608170368	0
9	21792	12913.14444958021	1
9	21794	12914.003817042972	0
9	28210	16872.30222908417	1
9	28211	16874.089372017538	0
9	28972	17232.994028823705	1
9	28976	17235.641904859337	0
9	31439	18730.293071659223	1
9	31441	18731.40755310388	0
9	32735	19564.270639666141	1
9	32736	19566.439005591391	0
9	32927	19660.229630520449	1
9	32939	19665.736673482958	0
9	32951	19668.00933959417	1
9	32953	19669.02609867034	0
9	33282	19823.236655887418	1
9	33285	19824.744548801907	2
9	33286	19825.088116458625	1
9	33289	19825.322568369682	0
9	33295	19828.083029557028	1
9	33300	19838.236684223067	2
9	33301	19838.696341895749	1
9	33304	19839.268998135757	0
9	33307	19840.058148063039	1
9	33309	19840.313124770368	0
9	33570	20025.688873264802	1
9	33571	20025.935567782744	0
9	34795	20973.911805827384	1
9	34802	20979.068281748157	2
9	34811	20982.114075486117	1
9	34846	20993.170327684387	0
9	34905	21016.822001343314	1
9	34906	21020.354998436101	0
9	35010	21082.766660792021	1
9	35011	21083.214561131936	0
9	39520	23575.273563445199	1
9	39524	23575.524931515814	0
9	39997	23862.421494603776	1
9	39999	23862.466622526511	0
9	42415	25222.332460882221	1
9	42431	25229.839338851097	0
9	42462	25239.196654344286	1
9	42464	25239.481811691267	0
9	46524	27480.278564925109	1
9	46526	27480.690240203546	0
9	46862	27709.153563657491	1
9	46866	27711.502966953202	0
9	47545	28067.956523003009	1
9	47546	28069.17111234675	0
9	48167	28421.931764039506	1
9	48179	28428.643732766292	0
9	49240	29021.288773495176	1
9	49241	29022.037700912915	0
9	49562	29190.120931760606	1
9	49566	29191.206752994255	0
9	49890	29363.565914646447	1
9	49891	29363.590267149513	0
9	50514	29681.784940416205	1
9	50519	29683.999136837554	0

