version 2
run Third_exit_8-2-20191114-11:42:59-9032
attr configname Third_exit_8
attr datetime 20191114-11:42:59
attr experiment Third_exit_8
attr inifile omnetpp.ini
attr iterationvars ""
attr iterationvarsf ""
attr measurement ""
attr network ResponseTimeNetwork
attr processid 9032
attr repetition 2
attr replication #2
attr resultdir results
attr runnumber 2
attr seedset 2
param **.Source.interArrivalTime exponential(6s)
param **.jobPriority bernoulli(0.8)
param **.PS.serviceTimeU1 "uniform(1.2s, 2.0s)"
param **.PS.serviceTimeU2 "uniform(2.4s, 2.8s)"
param **.SS1.serviceTime exponential(1.4s)
param **.SS2.serviceTime exponential(2s)
param **.PS.exitProbability bernoulli(0.8)

vector 0 ResponseTimeNetwork.QueueU1 queueLength:vector ETV
attr interpolationmode sample-hold
attr title "queue length, vector"
vector 1 ResponseTimeNetwork.SS1 queueLength:vector ETV
attr interpolationmode sample-hold
attr title "queue length, vector"
vector 2 ResponseTimeNetwork.QueueU2 queueLength:vector ETV
attr interpolationmode sample-hold
attr title "queue length, vector"
vector 3 ResponseTimeNetwork.sink lifeTimeU1:vector ETV
attr interpolationmode none
attr title "lifetime of arrived jobs U1, vector"
attr unit s
vector 4 ResponseTimeNetwork.sink totalServiceTimeU1:vector ETV
attr interpolationmode none
attr title "the total time spent  by arrived jobs U1, vector"
attr unit s
vector 5 ResponseTimeNetwork.sink lifeTime:vector ETV
attr interpolationmode none
attr title "lifetime of arrived jobs, vector"
attr unit s
vector 6 ResponseTimeNetwork.sink totalServiceTime:vector ETV
attr interpolationmode none
attr title "the total time spent  by arrived jobs, vector"
attr unit s
0	32256	10000.0109996918	154
0	32258	10001.209641571232	155
0	32260	10001.506488733811	156
0	32261	10001.6139814094	155
0	32267	10002.183299475436	156
0	32268	10003.17673839613	155
0	32272	10003.385835604635	156
0	32274	10003.824145350167	157
0	32275	10004.467860919825	156
0	32278	10006.442165185168	155
0	32282	10006.63864179998	156
0	32283	10008.179834574677	155
0	32286	10009.755558189407	154
0	32290	10010.403831460785	155
0	32291	10011.492885846674	154
0	32295	10012.050473955964	155
0	32296	10013.249188525259	154
0	32300	10013.469401592375	155
0	32301	10015.216876948095	154
0	32304	10017.11903754457	153
0	32308	10017.537239571904	154
0	32310	10017.667206204338	155
0	32312	10017.676980305945	156
0	32313	10018.482913847855	155
0	32316	10020.133448849647	154
0	32320	10021.230977173649	155
0	32321	10021.507414605311	154
0	32325	10021.738056043066	155
0	32326	10023.148744340829	154
0	32330	10023.307206264857	155
0	32331	10025.081393222168	154
0	32335	10025.199840331948	155
0	32336	10026.336990005925	154
0	32340	10027.199335972354	155
0	32342	10027.295596608567	156
0	32343	10028.18545157931	155
0	32347	10028.193069207069	156
0	32348	10029.43879599686	155
0	32353	10031.08584373615	154
0	32357	10031.829896457246	155
0	32358	10032.476938420565	154
0	32361	10033.981028216549	153
0	32365	10035.152593373124	154
0	32366	10035.572401117005	153
0	32369	10037.296416209296	152
0	32373	10037.535281508599	153
0	32375	10037.603217960801	154
0	32376	10038.564257561073	153
0	32380	10038.661877869124	154
0	32382	10039.209178336544	155
0	32383	10040.135857745849	154
0	32386	10041.368657788292	153
0	32390	10042.485362070722	154
0	32391	10042.616247346841	153
0	32395	10042.636745871358	154
0	32397	10043.75250833436	155
0	32398	10044.401801410534	154
0	32401	10045.988974009671	153
0	32405	10046.507176785413	154
0	32406	10047.706877043687	153
0	32410	10048.471318556828	154
0	32412	10048.969091824638	155
0	32413	10049.575769587636	154
0	32417	10050.752542403591	155
0	32418	10050.977844627045	154
0	32422	10051.191441806854	155
0	32424	10052.254714468868	156
0	32426	10052.306698088875	157
0	32427	10052.683375376865	156
0	32431	10053.342629131138	157
0	32432	10054.455089888751	156
0	32436	10055.826167130187	157
0	32437	10056.253107033886	156
0	32441	10056.843020800344	157
0	32443	10057.122108813319	158
0	32444	10057.560101293057	157
0	32447	10058.791093191162	156
0	32451	10060.567749994936	157
0	32452	10060.782815149457	156
0	32456	10061.636593801329	157
0	32459	10062.668913047605	156
0	32462	10064.383492744931	155
0	32466	10064.411404346277	156
0	32468	10064.519612546563	157
0	32470	10065.611521095692	158
0	32471	10065.878250221939	157
0	32475	10066.610337324548	158
0	32476	10067.427884540365	157
0	32480	10067.834420797822	158
0	32482	10067.996796675665	159
0	32483	10068.794956951619	158
0	32487	10069.199855876078	159
0	32488	10070.688693529957	158
0	32491	10072.442903362804	157
0	32496	10073.675752009482	156
0	32499	10074.958860754811	155
0	32503	10075.214675921873	156
0	32504	10076.245090060525	155
0	32507	10078.035593751848	154
0	32511	10078.351750887182	155
0	32512	10079.483750713647	154
0	32516	10080.843854606076	155
0	32517	10080.84428242001	154
0	32520	10082.660525799014	153
0	32523	10084.055545541674	152
0	32527	10084.420172602035	153
0	32528	10085.499226752326	152
0	32531	10086.871827879578	151
0	32534	10088.195011837065	150
0	32538	10088.821234506666	151
0	32539	10089.482113938808	150
0	32543	10090.572578254902	151
0	32544	10090.965541193664	150
0	32548	10091.104561723598	151
0	32550	10091.458615816711	152
0	32552	10092.193125205688	153
0	32553	10092.358268044174	152
0	32557	10092.610986082228	153
0	32558	10094.169108361036	152
0	32562	10094.599626590068	153
0	32563	10095.843803794153	152
0	32567	10097.268092955866	153
0	32568	10097.366539862595	152
0	32572	10097.591837765711	153
0	32573	10098.803221046209	152
0	32577	10100.189359871378	153
0	32578	10100.35290835037	152
0	32581	10102.03708149626	151
0	32585	10102.678818303401	152
0	32587	10103.439997794492	153
0	32588	10103.93067923694	152
0	32593	10105.776607422559	151
0	32598	10107.355781475483	150
0	32602	10107.66779269917	151
0	32603	10109.248304723604	150
0	32607	10110.680089830155	151
0	32608	10111.146365085272	150
0	32612	10111.503059747544	151
0	32613	10113.045448513171	150
0	32617	10113.304070969095	151
0	32621	10114.087341873683	152
0	32622	10114.270737040071	151
0	32626	10116.084347232704	152
0	32627	10116.118298979132	151
0	32631	10117.717917107641	152
0	32632	10117.910876350878	151
0	32635	10119.694720823532	150
0	32639	10120.157060914203	151
0	32641	10120.650432411708	152
0	32642	10121.268971625371	151
0	32646	10122.046176015095	152
0	32647	10122.521653266838	151
0	32652	10124.295317095732	150
0	32656	10124.437956595919	151
0	32658	10124.605440628857	152
0	32659	10126.171607991894	151
0	32663	10127.329246502363	152
0	32664	10127.530154318576	151
0	32668	10128.37696862159	152
0	32669	10128.889855693308	151
0	32672	10130.763349347403	150
0	32676	10131.831714145243	151
0	32677	10132.029954733913	150
0	32681	10132.423166922119	151
0	32683	10133.689483538056	152
0	32684	10133.987299054516	151
0	32688	10134.375152295752	152
0	32689	10135.51104608274	151
0	32693	10135.7552696142	152
0	32694	10136.713742779223	151
0	32697	10138.598040607227	150
0	32701	10138.612450225005	151
0	32703	10138.958042236474	152
0	32704	10140.043530274583	151
0	32708	10141.128789689053	152
0	32710	10141.247252677851	153
0	32713	10141.886581862746	152
0	32717	10142.311872889095	153
0	32718	10143.638199942028	152
0	32722	10144.377375752804	153
0	32723	10145.509966623997	152
0	32727	10145.923946992766	153
0	32728	10147.4885610821	152
0	32731	10148.792882744995	151
0	32735	10148.801459022851	152
0	32737	10149.891931466703	153
0	32738	10150.195523588945	152
0	32742	10151.069923347474	153
0	32743	10151.925330126126	152
0	32746	10153.585589358796	151
0	32749	10155.264082987633	150
0	32752	10156.921132413511	149
0	32756	10157.942738460913	150
0	32758	10158.416844626715	151
0	32759	10158.457326958728	150
0	32762	10159.891844065328	149
0	32766	10160.363185079401	150
0	32768	10160.720951016129	151
0	32769	10161.266481979777	150
0	32772	10162.69012327942	149
0	32776	10162.79250130532	150
0	32777	10164.117258106572	149
0	32781	10164.164548133239	150
0	32783	10164.525848921853	151
0	32785	10165.352251967442	152
0	32786	10165.559509884966	151
0	32790	10165.790070329009	152
0	32792	10166.653288389501	153
0	32793	10166.870807976862	152
0	32796	10168.241801143838	151
0	32799	10170.17980705223	150
0	32803	10170.202831304528	151
0	32804	10171.80157254639	150
0	32807	10173.179392396686	149
0	32810	10174.946732440804	148
0	32814	10175.58850217145	149
0	32816	10175.834510695951	150
0	32818	10176.615138255867	151
0	32819	10176.800673317377	150
0	32823	10177.265986945545	151
0	32824	10178.126013625812	150
0	32828	10178.606892663095	151
0	32830	10179.77259208739	152
0	32831	10179.939736987118	151
0	32834	10181.446667264242	150
0	32838	10182.559183895705	151
0	32839	10182.693195881348	150
0	32843	10183.402762032471	151
0	32844	10184.590599843513	150
0	32847	10186.497035601388	149
0	32851	10187.449619601914	150
0	32853	10187.581744762681	151
0	32854	10187.792720345619	150
0	32858	10188.258612541473	151
0	32859	10189.16744275971	150
0	32863	10189.179989693403	151
0	32865	10189.20555980699	152
0	32867	10190.04702569815	153
0	32868	10190.880396445493	152
0	32872	10191.191675033825	153
0	32874	10191.863746417748	154
0	32875	10192.229261638249	153
0	32879	10193.216258238893	154
0	32880	10193.618931251789	153
0	32883	10195.186582131895	152
0	32887	10196.014834227102	153
0	32888	10197.023705950777	152
0	32892	10197.888348505959	153
0	32893	10198.816408944714	152
0	32897	10199.151545688617	153
0	32898	10200.037850062574	152
0	32902	10200.060055658308	153
0	32903	10201.314068559023	152
0	32906	10202.900107304031	151
0	32910	10204.089894235038	152
0	32911	10204.306040485786	151
0	32915	10204.709973979451	152
0	32916	10206.190986537026	151
0	32919	10208.07121353394	150
0	32922	10209.43457317541	149
0	32926	10209.517014152359	150
0	32928	10209.753302097886	151
0	32930	10210.086849646049	152
0	32931	10211.417222106109	151
0	32935	10211.638904273152	152
0	32936	10212.640229096847	151
0	32940	10212.787485759943	152
0	32941	10214.515156590218	151
0	32944	10216.115243852163	150
0	32948	10216.519350306624	151
0	32949	10218.020966972435	150
0	32953	10219.298809671896	151
0	32954	10219.859203824239	150
0	32958	10220.926746263137	151
0	32959	10221.746031394439	150
0	32963	10222.651432908045	151
0	32964	10223.242298354792	150
0	32968	10223.428740514354	151
0	32969	10224.553894044484	150
0	32973	10224.94181235032	151
0	32975	10225.41523452041	152
0	32976	10225.828406824197	151
0	32980	10226.700727143714	152
0	32981	10227.128439183559	151
0	32985	10228.299517854826	152
0	32986	10228.955134341519	151
0	32990	10229.275691279154	152
0	32991	10230.309820073124	151
0	32995	10231.819700548108	152
0	32997	10231.93787269625	153
0	32998	10232.008895061564	152
0	33002	10233.015408792876	153
0	33004	10233.030198926113	154
0	33005	10233.353571077649	153
0	33008	10234.785270523306	152
0	33011	10236.319917057294	151
0	33015	10237.123470996823	152
0	33017	10237.371486303587	153
0	33018	10237.542354256872	152
0	33022	10238.648465932604	153
0	33023	10238.794925784159	152
0	33026	10240.409393120024	151
0	33030	10241.903338872125	152
0	33031	10242.013500226315	151
0	33035	10242.478600072791	152
0	33036	10243.994916834336	151
0	33040	10244.2235438321	152
0	33041	10245.65249148405	151
0	33044	10246.948116131898	150
0	33048	10247.189516439201	151
0	33049	10248.887723977517	150
0	33053	10249.372899109284	151
0	33054	10250.301847286176	150
0	33058	10250.98177517237	151
0	33060	10251.644666431063	152
0	33061	10251.820799216282	151
0	33064	10253.552599210877	150
0	33068	10253.818895357875	151
0	33070	10253.918309138403	152
0	33072	10254.490144048388	153
0	33074	10254.583365684895	154
0	33075	10255.03852928004	153
0	33081	10255.595218857545	154
0	33082	10256.350041582647	153
0	33085	10257.623562762167	152
0	33089	10258.513674928242	153
0	33091	10259.196686452722	154
0	33092	10259.309565015722	153
0	33095	10260.893043169778	152
0	33099	10261.899475287122	153
0	33100	10262.311973773901	152
0	33104	10263.079368114835	153
0	33105	10263.77191573887	152
0	33109	10264.488979518583	153
0	33110	10265.368880250518	152
0	33113	10267.234998382655	151
0	33117	10267.733647528024	152
0	33118	10268.551310877156	151
0	33122	10269.069813646091	152
0	33123	10270.503099032518	151
0	33127	10271.65429628295	152
0	33128	10272.435707767334	151
0	33131	10273.773545758825	150
0	33135	10274.054586685596	151
0	33136	10275.597919756387	150
0	33140	10275.718585837398	151
0	33142	10275.895074860565	152
0	33144	10275.929586989	153
0	33145	10277.232051572975	152
0	33149	10277.662276241117	153
0	33151	10278.992570031105	154
0	33152	10279.111801512938	153
0	33156	10279.842518160317	154
0	33157	10280.864693293747	153
0	33161	10281.997038491788	154
0	33162	10282.239815287877	153
0	33166	10282.469227810459	154
0	33167	10284.219482551169	153
0	33171	10284.676341798743	154
0	33172	10285.538799240653	153
0	33176	10286.23752883657	154
0	33177	10287.358749553588	153
0	33180	10288.776406800587	152
0	33184	10290.370926420723	153
0	33185	10290.390819127139	152
0	33189	10290.504111245866	153
0	33190	10292.20775600395	152
0	33193	10293.510369987253	151
0	33196	10294.720791841697	150
0	33200	10295.336147624249	151
0	33201	10296.126501395952	150
0	33205	10297.045664377161	151
0	33206	10297.614091215868	150
0	33210	10297.654325734078	151
0	33212	10298.303872993391	152
0	33214	10298.50476535292	153
0	33216	10299.410138438745	154
0	33217	10299.562200576466	153
0	33221	10300.356752279239	154
0	33223	10301.170403693282	155
0	33224	10301.278053907518	154
0	33228	10303.032558669957	155
0	33229	10303.173635614318	154
0	33233	10303.291910928375	155
0	33235	10304.312108162475	156
0	33236	10304.698553617698	155
0	33240	10305.66740429208	156
0	33241	10306.484793655601	155
0	33245	10307.922528889243	156
0	33246	10308.135452158217	155
0	33250	10309.904718292742	156
0	33251	10309.980041722421	155
0	33254	10311.320706015665	154
0	33258	10311.847646298311	155
0	33259	10312.778538027991	154
0	33263	10313.033622467561	155
0	33264	10314.19496824148	154
0	33268	10314.237426498249	155
0	33270	10314.409792352242	156
0	33272	10314.908816445306	157
0	33273	10315.636432288428	156
0	33277	10316.510719899449	157
0	33278	10317.095002847006	156
0	33282	10317.688978926887	157
0	33284	10318.535746193341	158
0	33285	10318.548525181999	157
0	33288	10320.485151310293	156
0	33292	10320.70170829645	157
0	33293	10322.34835898581	156
0	33296	10323.559469756326	155
0	33300	10323.615315352263	156
0	33302	10324.617489934251	157
0	33303	10324.857396218581	156
0	33307	10325.247462209983	157
0	33308	10326.222380697382	156
0	33311	10327.939159599346	155
0	33315	10328.710145871781	156
0	33317	10329.055886709232	157
0	33318	10329.841772226644	156
0	33322	10330.176491521204	157
0	33323	10331.066318789897	156
0	33326	10332.369967164499	155
0	33330	10332.422749680308	156
0	33331	10333.839721512635	155
0	33335	10335.191777089753	156
0	33337	10335.38083241537	157
0	33338	10335.481626654443	156
0	33342	10336.03298117381	157
0	33344	10337.079958827458	158
0	33345	10337.321176730123	157
0	33349	10337.520022651653	158
0	33350	10339.05403508826	157
0	33354	10339.507174470625	158
0	33356	10340.453892272838	159
0	33357	10340.613595083941	158
0	33361	10342.142304627802	159
0	33362	10342.550691909556	158
0	33365	10344.030589715046	157
0	33369	10345.41010754667	158
0	33371	10345.652278405564	159
0	33372	10345.88541829924	158
0	33376	10346.104876823413	159
0	33378	10346.402897535648	160
0	33379	10347.181249379207	159
0	33383	10347.325326963312	160
0	33384	10348.784823869382	159
0	33388	10348.895251859293	160
0	33390	10349.784908542628	161
0	33391	10350.056640891758	160
0	33394	10352.005913633135	159
0	33397	10353.528601035875	158
0	33401	10355.069640141503	159
0	33402	10355.086876806644	158
0	33406	10355.474842597874	159
0	33408	10355.581403445108	160
0	33409	10356.319184836586	159
0	33412	10357.755175951709	158
0	33416	10358.049543618677	159
0	33418	10358.337042071071	160
0	33420	10358.825161267883	161
0	33421	10359.669415864748	160
0	33425	10360.505131200571	161
0	33426	10361.066339405467	160
0	33430	10361.675466233443	161
0	33431	10362.757521818792	160
0	33435	10363.140949914147	161
0	33436	10364.099041430493	160
0	33439	10365.424561646794	159
0	33443	10366.485613106985	160
0	33444	10367.351398741295	159
0	33448	10368.630431655673	160
0	33449	10369.032126490054	159
0	33453	10369.543589107585	160
0	33454	10370.904950258163	159
0	33460	10371.529603505688	160
0	33461	10372.28735677435	159
0	33465	10373.619852704227	160
0	33467	10373.907390889527	161
0	33468	10374.156209671711	160
0	33472	10374.612594886647	161
0	33473	10375.875396601138	160
0	33477	10375.9805486653	161
0	33478	10377.668151996126	160
0	33481	10379.468809868423	159
0	33485	10380.296199414704	160
0	33487	10380.511364420361	161
0	33488	10380.93015392798	160
0	33494	10382.028487553223	161
0	33495	10382.341484557493	160
0	33500	10384.145321051991	159
0	33503	10385.526858763425	158
0	33506	10387.367279000422	157
0	33510	10387.501759386743	158
0	33512	10388.287154708082	159
0	33513	10389.020742587401	158
0	33516	10390.35552402719	157
0	33519	10391.669643961294	156
0	33523	10392.457903196215	157
0	33524	10392.878863917133	156
0	33528	10394.125043002059	157
0	33529	10394.638545299163	156
0	33533	10394.920940405405	157
0	33534	10396.497494600555	156
0	33538	10396.617716023139	157
0	33540	10396.866334627154	158
0	33541	10398.116840589074	157
0	33545	10399.246387173076	158
0	33546	10399.76407592914	157
0	33550	10401.386282297285	158
0	33551	10401.474668744047	157
0	33554	10402.869756347899	156
0	33558	10403.3517222727	157
0	33560	10403.495972215114	158
0	33561	10404.299434344125	157
0	33564	10405.722258565416	156
0	33567	10406.960902868052	155
0	33571	10408.616616127966	156
0	33572	10408.770950614315	155
0	33575	10410.359420216483	154
0	33578	10412.005050111403	153
0	33581	10413.563242103745	152
0	33585	10413.900871364791	153
0	33587	10414.581605710607	154
0	33588	10415.337026873444	153
0	33592	10416.939588088619	154
0	33593	10417.053145332661	153
0	33596	10418.876713418056	152
0	33600	10418.901254929286	153
0	33602	10420.667264659261	154
0	33603	10420.725245157656	153
0	33607	10420.824725126349	154
0	33609	10421.44386780648	155
0	33611	10421.545002479086	156
0	33613	10422.107540307821	157
0	33614	10422.295327512015	156
0	33617	10423.791556418341	155
0	33620	10425.088593819205	154
0	33624	10425.341219388571	155
0	33626	10425.579599146885	156
0	33627	10426.956888413456	155
0	33631	10427.02440045566	156
0	33632	10428.611834066202	155
0	33636	10429.883988368537	156
0	33637	10429.92582138407	155
0	33640	10431.808217968819	154
0	33644	10432.214922215114	155
0	33645	10433.473436345932	154
0	33649	10433.864548835804	155
0	33651	10433.910405309596	156
0	33653	10434.763315149454	157
0	33654	10435.35194021373	156
0	33657	10436.609778804732	155
0	33661	10437.858779183104	156
0	33662	10437.87298232655	155
0	33666	10439.024152072225	156
0	33667	10439.598269606409	155
0	33671	10439.754720962517	156
0	33672	10441.09267917986	155
0	33675	10442.483519366597	154
0	33681	10443.699927474032	155
0	33683	10444.094791764698	156
0	33684	10444.233520312262	155
0	33687	10445.548626037714	154
0	33690	10446.962513492097	153
0	33694	10448.138504675453	154
0	33695	10448.387264581983	153
0	33698	10450.01343964788	152
0	33701	10451.294768621613	151
0	33705	10452.09118431506	152
0	33707	10452.223636764308	153
0	33708	10452.796898689148	152
0	33711	10454.469317246814	151
0	33714	10456.117490099211	150
0	33717	10457.756526431282	149
0	33721	10458.823367853702	150
0	33723	10459.303522872335	151
0	33725	10459.404089827564	152
0	33726	10459.660515521494	151
0	33730	10459.843158994238	152
0	33732	10459.920993545276	153
0	33733	10461.078570829173	152
0	33737	10462.160581427644	153
0	33739	10462.247536999561	154
0	33740	10462.76678981672	153
0	33744	10463.814325991551	154
0	33746	10464.026617993386	155
0	33747	10464.543062773374	154
0	33751	10464.919694606808	155
0	33753	10465.513703326642	156
0	33755	10465.745229245559	157
0	33756	10465.921053233025	156
0	33760	10466.748258992339	157
0	33761	10467.784221601886	156
0	33765	10468.164101558372	157
0	33766	10469.68249342556	156
0	33770	10470.740089984036	157
0	33771	10471.130042989206	156
0	33775	10471.212915539526	157
0	33776	10473.102930953194	156
0	33780	10474.099735643554	157
0	33781	10474.556465138149	156
0	33784	10475.870086282146	155
0	33788	10476.743014426793	156
0	33789	10477.326195126613	155
0	33793	10477.965419730821	156
0	33794	10479.155538726998	155
0	33797	10480.67702228113	154
0	33801	10481.718620571538	155
0	33802	10482.435969262225	154
0	33805	10484.069981987615	153
0	33809	10484.107215350495	154
0	33811	10484.133474681206	155
0	33813	10484.390773274932	156
0	33814	10485.376802914244	155
0	33818	10485.840644427056	156
0	33819	10486.738508426984	155
0	33823	10487.64350183645	156
0	33824	10488.453511056331	155
0	33828	10488.894329273364	156
0	33829	10490.233371403468	155
0	33832	10492.077122274813	154
0	33836	10492.484523943332	155
0	33837	10493.278051372085	154
0	33841	10494.955879990667	155
0	33842	10494.97579726952	154
0	33845	10496.275807524313	153
0	33849	10497.63997515266	154
0	33850	10497.975669462447	153
0	33853	10499.731728618619	152
0	33857	10500.708108672897	153
0	33858	10501.04145543429	152
0	33862	10501.663200503041	153
0	33864	10502.062172902506	154
0	33865	10502.817622454119	153
0	33869	10502.982431168949	154
0	33870	10504.573555823815	153
0	33873	10505.903437854563	152
0	33877	10506.550879596018	153
0	33879	10506.894660601774	154
0	33880	10507.689037122418	153
0	33884	10509.502277834482	154
0	33885	10509.661396013041	153
0	33888	10511.354940954064	152
0	33891	10512.710268955332	151
0	33895	10512.809032908957	152
0	33896	10514.598169196983	151
0	33899	10516.357416966026	150
0	33902	10517.937302577895	149
0	33905	10519.75052012748	148
0	33909	10519.782608535267	149
0	33911	10520.800347105036	150
0	33912	10521.522451846515	149
0	33916	10522.024923796667	150
0	33917	10523.041460869488	149
0	33921	10523.416249961084	150
0	33923	10524.053957076431	151
0	33924	10524.40234393983	150
0	33927	10525.759109834422	149
0	33931	10526.323912174751	150
0	33933	10526.924153296184	151
0	33935	10527.377058523552	152
0	33936	10527.479231489663	151
0	33940	10528.246530649745	152
0	33942	10528.292103202549	153
0	33944	10528.318129012676	154
0	33946	10528.560275812125	155
0	33947	10528.825616357875	154
0	33951	10529.262625186392	155
0	33953	10529.318034592911	156
0	33955	10529.833464606268	157
0	33956	10530.151257359263	156
0	33959	10531.929265163679	155
0	33963	10532.816579151964	156
0	33965	10533.084975240122	157
0	33967	10533.111506731787	158
0	33968	10533.313512013879	157
0	33972	10534.856293096488	158
0	33973	10534.923765371394	157
0	33977	10535.397680612566	158
0	33979	10536.431786105795	159
0	33980	10536.557831567925	158
0	33983	10538.010541989867	157
0	33987	10538.97113705302	158
0	33988	10539.392310955029	157
0	33992	10540.483053997254	158
0	33993	10540.858439468805	157
0	33997	10542.282695793663	158
0	33998	10542.400174881172	157
0	34001	10543.719177521792	156
0	34005	10544.139971955093	157
0	34007	10544.552076137493	158
0	34009	10544.972872437043	159
0	34011	10545.259277032414	160
0	34012	10545.600439487052	159
0	34016	10546.076778117435	160
0	34017	10546.900609699664	159
0	34021	10547.21063366288	160
0	34022	10548.632429662933	159
0	34026	10548.660148546258	160
0	34027	10549.914089362909	159
0	34030	10551.527983575155	158
0	34034	10551.748195357177	159
0	34035	10552.835580391091	158
0	34039	10553.26424599104	159
0	34041	10553.696774630605	160
0	34042	10554.412134511237	159
0	34046	10555.50803569433	160
0	34047	10555.657674450268	159
0	34050	10557.434419378665	158
0	34054	10557.907431525882	159
0	34055	10559.052653555971	158
0	34059	10559.66550207176	159
0	34062	10560.345972082977	158
0	34065	10562.143124230419	157
0	34069	10563.135470902572	158
0	34071	10563.141128215324	159
0	34072	10563.659685071957	158
0	34076	10564.645944030457	159
0	34077	10565.295533492629	158
0	34081	10566.052182847983	159
0	34082	10566.786872058947	158
0	34085	10568.335116615545	157
0	34089	10569.633795183851	158
0	34090	10569.880611670975	157
0	34094	10569.930616261706	158
0	34095	10571.826195707385	157
0	34099	10572.475287590125	158
0	34100	10573.242901191887	157
0	34103	10575.101821341392	156
0	34108	10576.888339279432	155
0	34112	10578.448927426177	156
0	34113	10578.564388678063	155
0	34117	10579.28186270824	156
0	34118	10580.38602477948	155
0	34121	10581.830496619854	154
0	34125	10582.284320863931	155
0	34126	10583.08465548924	154
0	34130	10583.165557484863	155
0	34132	10583.175475050777	156
0	34134	10583.873511811966	157
0	34137	10585.067630593505	156
0	34141	10586.366059788706	157
0	34142	10586.689322575394	156
0	34145	10588.452971130449	155
0	34149	10588.660507204163	156
0	34150	10589.655503222931	155
0	34153	10591.381088753816	154
0	34157	10593.180029558916	155
0	34158	10593.308412883085	154
0	34162	10593.745782020033	155
0	34164	10594.385255692343	156
0	34165	10594.784909139042	155
0	34169	10594.914474516599	156
0	34171	10595.244326044094	157
0	34173	10595.940779805499	158
0	34174	10596.291647110348	157
0	34178	10596.564293992588	158
0	34179	10597.623123529953	157
0	34182	10599.224571247612	156
0	34186	10600.252470297176	157
0	34187	10600.544152845842	156
0	34190	10602.279995505725	155
0	34194	10602.40409336519	156
0	34195	10603.624933741455	155
0	34199	10604.233376234706	156
0	34200	10604.919792531458	155
0	34203	10606.482432160368	154
0	34207	10608.312748820266	155
0	34208	10608.31593341439	154
0	34212	10609.48046384863	155
0	34213	10609.983085120124	154
0	34217	10611.326058930984	155
0	34218	10611.425959173058	154
0	34222	10611.781086881516	155
0	34223	10613.408163078529	154
0	34227	10613.493201852705	155
0	34229	10615.047003120529	156
0	34231	10615.066511781592	157
0	34232	10615.12021654251	156
0	34235	10616.407830292945	155
0	34239	10617.918929424668	156
0	34240	10618.093869935562	155
0	34243	10619.504966332418	154
0	34247	10620.271575061289	155
0	34248	10620.884361590658	154
0	34252	10622.852473422796	155
0	34253	10622.852949521904	154
0	34257	10622.969396165885	155
0	34259	10623.091860233508	156
0	34260	10624.673763585118	155
0	34263	10626.520441094068	154
0	34267	10627.649748479117	155
0	34268	10628.324632511501	154
0	34272	10628.456183437936	155
0	34273	10630.216475356956	154
0	34276	10632.181652948101	153
0	34280	10633.048571775444	154
0	34282	10633.162926202738	155
0	34283	10633.752460334849	154
0	34287	10635.042038497623	155
0	34288	10635.59113810419	154
0	34292	10635.910505280512	155
0	34294	10636.751404655314	156
0	34295	10636.816896077086	155
0	34299	10636.841045667191	156
0	34300	10638.092500464459	155
0	34303	10639.585628101257	154
0	34306	10640.967511827153	153
0	34310	10641.303599367338	154
0	34312	10642.241813998877	155
0	34313	10642.693795895976	154
0	34316	10643.92045051868	153
0	34320	10644.639421918465	154
0	34321	10645.711457081353	153
0	34325	10647.326595779366	154
0	34326	10647.679965330315	153
0	34330	10647.777048798985	154
0	34331	10648.91666506811	153
0	34335	10650.029349691338	154
0	34336	10650.407287644436	153
0	34342	10651.663707060212	154
0	34344	10651.915891654563	155
0	34345	10652.175583938164	154
0	34349	10653.894816055186	155
0	34350	10654.000977823352	154
0	34354	10654.558893248106	155
0	34355	10655.973922161599	154
0	34359	10656.402690556944	155
0	34361	10657.151587241986	156
0	34362	10657.955605281172	155
0	34366	10658.12029159592	156
0	34367	10659.30868695884	155
0	34370	10661.138613617448	154
0	34374	10661.295011862635	155
0	34375	10662.405139635904	154
0	34380	10664.305785673326	153
0	34384	10664.89373838637	154
0	34386	10664.992278888776	155
0	34387	10666.101435576035	154
0	34390	10667.56024453233	153
0	34394	10668.566360094761	154
0	34396	10668.905266761246	155
0	34399	10669.532699864199	154
0	34403	10670.741222297425	155
0	34404	10671.305874990513	154
0	34408	10672.405666045576	155
0	34409	10672.654261454595	154
0	34413	10672.77531131097	155
0	34414	10673.912867373628	154
0	34418	10674.031099222392	155
0	34419	10675.862272753221	154
0	34423	10676.679371853954	155
0	34424	10677.469830792238	154
0	34428	10677.751739849246	155
0	34429	10678.73052419315	154
0	34433	10679.232750040359	155
0	34434	10680.015799659145	154
0	34438	10680.089329871491	155
0	34440	10680.316753555975	156
0	34441	10681.404150270139	155
0	34445	10682.978658129672	156
0	34446	10683.121143255224	155
0	34449	10684.760367748728	154
0	34453	10685.802092944865	155
0	34454	10686.732550741015	154
0	34458	10687.107319024633	155
0	34460	10687.362187015399	156
0	34461	10688.322074878244	155
0	34465	10689.744785112479	156
0	34466	10690.060727463877	155
0	34470	10691.951107831433	156
0	34471	10691.978896998828	155
0	34475	10692.973566562852	156
0	34476	10693.210945289237	155
0	34479	10694.440345110399	154
0	34483	10695.314297311661	155
0	34484	10696.129059868892	154
0	34488	10696.658985649427	155
0	34490	10697.538265620347	156
0	34491	10697.556250690324	155
0	34494	10699.142202082863	154
0	34498	10699.143009534211	155
0	34500	10699.934338338215	156
0	34501	10700.404884268371	155
0	34504	10701.990890907896	154
0	34508	10702.618571570804	155
0	34510	10703.215504457188	156
0	34511	10703.620958691118	155
0	34515	10704.007753030207	156
0	34516	10705.579126835828	155
0	34520	10706.073731740575	156
0	34521	10706.799293560562	155
0	34525	10707.262389474863	156
0	34526	10708.754282553335	155
0	34531	10709.958515326334	154
0	34534	10711.376173245748	153
0	34538	10712.486210447013	154
0	34540	10713.033475803174	155
0	34541	10713.32680277734	154
0	34545	10714.292594585843	155
0	34546	10714.96151812992	154
0	34549	10716.477459581596	153
0	34552	10718.176969067034	152
0	34556	10719.188412723067	153
0	34557	10720.114071825173	152
0	34560	10722.109322226446	151
0	34563	10723.417376774389	150
0	34567	10724.528784207805	151
0	34568	10725.397327013526	150
0	34571	10727.218652126778	149
0	34575	10727.376705613325	150
0	34576	10729.087086355899	149
0	34580	10730.216647861475	150
0	34581	10730.349673880104	149
0	34585	10730.420253241365	150
0	34586	10732.050782011475	149
0	34589	10733.638043040808	148
0	34593	10733.678740172695	149
0	34595	10734.977909824955	150
0	34596	10735.287911136102	149
0	34600	10735.392714575791	150
0	34602	10735.662435402423	151
0	34605	10737.18049220017	150
0	34609	10738.085961455241	151
0	34610	10738.745850212153	150
0	34614	10738.825169509743	151
0	34616	10739.820469559357	152
0	34617	10740.319165590245	151
0	34620	10741.801056316893	150
0	34624	10741.835995738055	151
0	34625	10743.735802380766	150
0	34629	10744.179612434853	151
0	34631	10744.784843439371	152
0	34633	10745.108956913057	153
0	34634	10745.676520248155	152
0	34638	10747.24014598039	153
0	34639	10747.509655597458	152
0	34643	10747.528395673013	153
0	34644	10749.160955003115	152
0	34648	10749.315329874061	153
0	34649	10750.387047654974	152
0	34653	10751.080881306646	153
0	34654	10751.885460867013	152
0	34658	10752.951769345235	153
0	34659	10753.381828610997	152
0	34662	10755.088440457384	151
0	34665	10756.478486886459	150
0	34668	10757.82516432258	149
0	34672	10758.604710933658	150
0	34674	10759.498290729271	151
0	34676	10759.54044489517	152
0	34677	10759.648289435568	151
0	34682	10761.305643492776	150
0	34686	10761.341863581128	151
0	34687	10762.738386177483	150
0	34691	10763.000044012259	151
0	34693	10763.379419160919	152
0	34694	10764.282519788506	151
0	34698	10764.332508190476	152
0	34699	10765.7222027194	151
0	34703	10766.760514719954	152
0	34704	10766.935097846041	151
0	34708	10768.298657282033	152
0	34709	10768.41503887328	151
0	34713	10768.444145224093	152
0	34714	10770.079059453333	151
0	34718	10771.414263059429	152
0	34719	10771.551814967418	151
0	34723	10772.766072598173	152
0	34724	10773.180333855959	151
0	34728	10773.344414374419	152
0	34729	10774.407877866203	151
0	34733	10774.639109911108	152
0	34734	10776.211943560863	151
0	34740	10777.81770592255	152
0	34741	10777.860298151547	151
0	34745	10778.767172889375	152
0	34746	10779.554537119554	151
0	34750	10779.577719342702	152
0	34752	10780.879561870999	153
0	34753	10781.193704194599	152
0	34757	10782.656015636532	153
0	34758	10783.187493626238	152
0	34761	10785.057307321974	151
0	34764	10786.622859886126	150
0	34767	10788.256546883309	149
0	34770	10789.602437225008	148
0	34774	10790.921265239513	149
0	34775	10791.038452999131	148
0	34779	10791.763335874074	149
0	34781	10792.079159341711	150
0	34782	10792.72292071546	149
0	34785	10794.462182411948	148
0	34789	10794.535088799312	149
0	34791	10795.028445957164	150
0	34793	10795.726588236641	151
0	34794	10796.007174092741	150
0	34798	10797.465296813521	151
0	34799	10797.78143199163	150
0	34803	10797.785720874033	151
0	34805	10798.589338730293	152
0	34806	10799.277609278098	151
0	34809	10800.733924001478	150
0	34812	10802.111694681481	149
0	34815	10803.84751692193	148
0	34818	10805.418390388064	147
0	34821	10807.278121720463	146
0	34824	10808.686336519591	145
0	34828	10809.386443022829	146
0	34830	10809.510810930972	147
0	34832	10809.596981354418	148
0	34833	10810.562296193487	147
0	34837	10810.912790113229	148
0	34838	10812.149810898139	147
0	34841	10813.963459091655	146
0	34844	10815.196799287035	145
0	34847	10817.167309858858	144
0	34851	10817.578343929745	145
0	34853	10818.262157814393	146
0	34854	10818.889747004046	145
0	34858	10819.347076949657	146
0	34859	10820.351085447541	145
0	34863	10820.3957284337	146
0	34865	10820.758199548062	147
0	34867	10820.839886950059	148
0	34868	10821.618312281205	147
0	34872	10821.725668226501	148
0	34874	10822.783464787988	149
0	34875	10823.492860448568	148
0	34879	10825.09693349078	149
0	34880	10825.281774795822	148
0	34883	10826.497810682676	147
0	34887	10827.287866403888	148
0	34889	10827.836985254485	149
0	34890	10827.983519186287	148
0	34893	10829.912047781816	147
0	34897	10830.094049874944	148
0	34899	10830.193621325795	149
0	34900	10831.238596798314	148
0	34903	10832.614199395498	147
0	34906	10834.053753121963	146
0	34910	10834.092263091117	147
0	34912	10835.002593856242	148
0	34914	10835.723956070281	149
0	34915	10835.893679786494	148
0	34918	10837.866901288575	147
0	34922	10838.518267536671	148
0	34923	10839.271560912786	147
0	34927	10839.328284980059	148
0	34929	10839.404885166389	149
0	34931	10839.631177691891	150
0	34932	10840.520680198653	149
0	34936	10840.640167789588	150
0	34937	10842.103288337609	149
0	34941	10843.319317939126	150
0	34942	10843.572660998462	149
0	34946	10844.406253127538	150
0	34947	10844.873694138063	149
0	34950	10846.433250311969	148
0	34954	10847.363217794659	149
0	34955	10848.285058428368	148
0	34959	10848.390495782924	149
0	34960	10849.737628991364	148
0	34963	10851.581266970208	147
0	34969	10852.954006092631	148
0	34970	10853.017751012018	147
0	34973	10854.861990350133	146
0	34977	10855.717050040107	147
0	34979	10856.429409795552	148
0	34980	10856.61644556096	147
0	34984	10856.645226021924	148
0	34986	10857.798971426479	149
0	34987	10858.072284833735	148
0	34991	10859.348441706714	149
0	34992	10859.61391676536	148
0	34995	10861.01045752207	147
0	34998	10862.380769619552	146
0	35001	10863.595262780806	145
0	35004	10865.17280586159	144
0	35008	10866.366476426695	145
0	35009	10866.727722434161	144
0	35012	10867.934654884619	143
0	35016	10869.261007781453	144
0	35018	10869.312280119845	145
0	35019	10869.366609038432	144
0	35023	10869.804200384749	145
0	35024	10870.812819423546	144
0	35028	10871.791622898681	145
0	35029	10872.413430950065	144
0	35033	10872.793957324327	145
0	35035	10872.906858296437	146
0	35037	10872.96045843629	147
0	35039	10873.580019477104	148
0	35040	10873.697744518165	147
0	35044	10873.747166836189	148
0	35046	10874.324878918873	149
0	35048	10874.349143886298	150
0	35050	10875.006189641441	151
0	35051	10875.083603852448	150
0	35054	10876.630633545128	149
0	35058	10876.652198579564	150
0	35060	10878.136612956234	151
0	35061	10878.409035069702	150
0	35064	10879.841229953265	149
0	35068	10880.324681103596	150
0	35069	10881.255763955994	149
0	35073	10881.651697351254	150
0	35075	10881.961079041235	151
0	35077	10882.441671767969	152
0	35079	10882.707840380779	153
0	35080	10882.963298817559	152
0	35084	10883.451965992272	153
0	35086	10883.973708170962	154
0	35088	10884.464355603224	155
0	35089	10884.469988628498	154
0	35093	10885.492224843734	155
0	35094	10885.953784415706	154
0	35097	10887.345551725126	153
0	35100	10889.304831758536	152
0	35104	10889.507772477322	153
0	35106	10890.022985923738	154
0	35108	10890.384162714412	155
0	35109	10891.115109915308	154
0	35113	10891.457821687159	155
0	35114	10892.609028986491	154
0	35117	10894.214930834457	153
0	35121	10894.332648427105	154
0	35122	10896.147117526293	153
0	35126	10896.848372132386	154
0	35127	10897.900168458022	153
0	35131	10899.002163066283	154
0	35132	10899.846646954141	153
0	35136	10900.486581273639	154
0	35137	10901.052821525953	153
0	35140	10902.312429275758	152
0	35144	10902.321226941777	153
0	35146	10902.347414588424	154
0	35148	10903.936145457873	155
0	35149	10903.96151138658	154
0	35153	10904.573237522774	155
0	35154	10905.474823310807	154
0	35157	10907.095923103787	153
0	35160	10908.818170915008	152
0	35164	10909.824167948238	153
0	35165	10910.287842354574	152
0	35169	10911.267452493061	153
0	35171	10911.573011403433	154
0	35172	10912.165533362352	153
0	35176	10912.352177866091	154
0	35178	10912.734366389033	155
0	35179	10914.090305647836	154
0	35183	10914.272408008969	155
0	35185	10914.930117771554	156
0	35186	10915.32500002759	155
0	35189	10916.569076359481	154
0	35193	10916.641053197084	155
0	35194	10917.852480812952	154
0	35198	10919.236609331805	155
0	35200	10919.347875527076	156
0	35201	10919.835137463942	155
0	35204	10921.383628078013	154
0	35208	10922.048541314719	155
0	35210	10922.223941531913	156
0	35211	10922.702359565555	155
0	35215	10923.173010921494	156
0	35217	10923.486855283168	157
0	35219	10923.618121527789	158
0	35220	10924.486184339433	157
0	35223	10925.932696262023	156
0	35227	10926.340784787881	157
0	35229	10926.742852129478	158
0	35231	10927.372163191165	159
0	35232	10927.902827879062	158
0	35236	10928.631035550236	159
0	35237	10929.728474595977	158
0	35240	10931.676086508317	157
0	35244	10932.684141333467	158
0	35246	10932.872834209863	159
0	35247	10933.316025250426	158
0	35251	10933.827621350206	159
0	35252	10934.6022578018	158
0	35256	10934.779094069112	159
0	35257	10936.486779886692	158
0	35261	10937.898345798802	159
0	35262	10938.036651309042	158
0	35265	10939.85473109877	157
0	35269	10940.622628698866	158
0	35271	10940.808308205383	159
0	35272	10941.762589629202	158
0	35276	10942.989443807722	159
0	35278	10943.331278165884	160
0	35279	10943.463641633301	159
0	35283	10943.691532340664	160
0	35284	10944.835982868097	159
0	35288	10945.241040466132	160
0	35289	10946.609841759338	159
0	35293	10947.609211371441	160
0	35294	10947.893696286178	159
0	35298	10948.426636669057	160
0	35301	10949.883704941368	159
0	35305	10951.036875745905	160
0	35306	10951.178516518159	159
0	35310	10952.435478338012	160
0	35311	10953.161491569525	159
0	35315	10953.851812400503	160
0	35317	10953.998869673424	161
0	35318	10954.831293652041	160
0	35322	10955.387931650057	161
0	35323	10956.726748560203	160
0	35327	10957.882659330475	161
0	35328	10958.290276096409	160
0	35331	10959.679548572397	159
0	35335	10960.30130530408	160
0	35337	10960.439815033362	161
0	35340	10960.884747503905	160
0	35343	10962.100836662038	159
0	35346	10963.502688722334	158
0	35349	10964.891817749499	157
0	35352	10966.615252717978	156
0	35355	10967.991625903568	155
0	35359	10969.302711257057	156
0	35360	10969.310691151603	155
0	35364	10969.457748132071	156
0	35366	10970.825518936506	157
0	35367	10971.28298770061	156
0	35371	10971.467162570855	157
0	35373	10971.649494503698	158
0	35375	10972.198240974787	159
0	35376	10973.092533738746	158
0	35379	10975.008445443048	157
0	35383	10975.410920399643	158
0	35385	10975.957678230758	159
0	35386	10976.544374586849	158
0	35390	10976.607947123383	159
0	35391	10978.166731305441	158
0	35395	10978.183713139821	159
0	35396	10980.116362810342	158
0	35400	10981.272713208678	159
0	35402	10981.286363635705	160
0	35404	10981.513590929129	161
0	35405	10981.723669390401	160
0	35408	10983.197975666097	159
0	35412	10983.205585460874	160
0	35413	10984.608009241542	159
0	35417	10985.466574666208	160
0	35419	10985.581918004005	161
0	35420	10986.385690679608	160
0	35424	10986.523396589866	161
0	35426	10986.684297612598	162
0	35428	10986.809034018627	163
0	35429	10988.178793474121	162
0	35432	10989.954563971443	161
0	35436	10991.09057782977	162
0	35437	10991.552407671159	161
0	35441	10991.599431331048	162
0	35443	10991.759095618195	163
0	35444	10992.874503419941	162
0	35448	10993.078443187652	163
0	35449	10994.098706202602	162
0	35453	10994.286223079277	163
0	35455	10995.711970271908	164
0	35456	10995.927726749165	163
0	35459	10997.707047507187	162
0	35462	10999.245946498608	161
0	35466	11000.759690809903	162
0	35467	11001.111151849685	161
0	35471	11001.444387020987	162
0	35472	11002.78357919289	161
0	35476	11003.573965126656	162
0	35478	11003.846982435728	163
0	35479	11004.070193005933	162
0	35483	11004.414183376244	163
0	35484	11005.65815846829	162
0	35488	11005.744355077392	163
0	35490	11005.807407131135	164
0	35491	11007.265630155637	163
0	35495	11007.672862704616	164
0	35496	11008.482978558376	163
0	35500	11008.529571055416	164
0	35502	11008.774337527577	165
0	35503	11010.020769254326	164
0	35507	11010.41455442447	165
0	35508	11011.717311740688	164
0	35513	11013.258074822857	163
0	35517	11013.404264358447	164
0	35518	11014.494468234128	163
0	35521	11015.837927422507	162
0	35525	11017.431385938694	163
0	35528	11017.8044475198	162
0	35532	11017.819469492034	163
0	35534	11018.662235723298	164
0	35535	11019.725674471466	163
0	35539	11020.254871893461	164
0	35540	11020.953841525523	163
0	35544	11021.532788935809	164
0	35545	11022.403705028092	163
0	35548	11023.947368908321	162
0	35552	11024.029148390923	163
0	35554	11025.368890659145	164
0	35555	11025.816519324501	163
0	35560	11027.018128742856	162
0	35564	11027.600186412438	163
0	35565	11028.940171454494	162
0	35569	11029.858160379353	163
0	35570	11030.793583059703	162
0	35574	11031.504486471056	163
0	35575	11032.643051069249	162
0	35579	11033.017458371373	163
0	35580	11034.116149449181	162
0	35584	11034.324926185538	163
0	35585	11035.724312625099	162
0	35588	11037.125903311204	161
0	35592	11037.968707264177	162
0	35593	11038.42112557685	161
0	35596	11039.639406870697	160
0	35599	11040.8546970688	159
0	35602	11042.662851628867	158
0	35605	11044.576501114314	157
0	35609	11046.280225110488	158
0	35610	11046.424811691252	157
0	35613	11047.804941060041	156
0	35617	11048.118384176825	157
0	35618	11049.09510000052	156
0	35622	11049.141825312651	157
0	35624	11049.741360979917	158
0	35625	11050.658340949212	157
0	35629	11051.100421691855	158
0	35631	11051.460944291302	159
0	35632	11052.234687950481	158
0	35636	11052.743033308787	159
0	35637	11053.444334390965	158
0	35641	11053.657132042053	159
0	35643	11053.963727323228	160
0	35645	11054.641219292449	161
0	35647	11054.819617978907	162
0	35648	11055.234859088083	161
0	35652	11056.156836790638	162
0	35653	11057.135302312692	161
0	35657	11058.190890798398	162
0	35658	11058.606769821626	161
0	35662	11059.276749116928	162
0	35664	11059.587454826564	163
0	35665	11059.977474250478	162
0	35669	11060.036183408151	163
0	35670	11061.387675865946	162
0	35674	11062.341898877774	163
0	35678	11062.816218280752	164
0	35679	11063.002356608977	163
0	35683	11063.814962800827	164
0	35685	11064.144917457331	165
0	35686	11064.31391763149	164
0	35690	11064.683388368349	165
0	35692	11064.780619858314	166
0	35693	11066.012368967218	165
0	35697	11066.843259095121	166
0	35698	11067.689691614194	165
0	35702	11068.578355304388	166
0	35703	11068.918285968175	165
0	35707	11069.40499302114	166
0	35708	11070.529045492804	165
0	35712	11071.352835150355	166
0	35713	11072.500056570975	165
0	35716	11074.164291397503	164
0	35720	11075.187426324131	165
0	35721	11075.822486232801	164
0	35725	11076.181521132927	165
0	35726	11077.811831594838	164
0	35730	11078.380451600744	165
0	35731	11079.704311789407	164
0	35735	11079.816006296205	165
0	35737	11080.718036173234	166
0	35739	11081.134943287412	167
0	35740	11081.340872539601	166
0	35744	11082.288649411743	167
0	35745	11082.722123970112	166
0	35749	11083.51318327088	167
0	35750	11084.308345856911	166
0	35754	11084.524460481314	167
0	35755	11086.034226960151	166
0	35759	11086.78177922389	167
0	35760	11087.834661836571	166
0	35764	11087.849675703193	167
0	35765	11089.422664870157	166
0	35769	11090.040866035946	167
0	35770	11090.837073809116	166
0	35773	11092.481781331285	165
0	35777	11092.599450649902	166
0	35778	11094.092355172358	165
0	35782	11095.494185460863	166
0	35783	11095.732221154891	165
0	35787	11096.012437883638	166
0	35789	11096.990314647408	167
0	35790	11097.608093774341	166
0	35794	11097.722930247231	167
0	35795	11098.899928500712	166
0	35798	11100.395684009627	165
0	35802	11102.041804308403	166
0	35803	11102.247807384305	165
0	35806	11104.141735332109	164
0	35810	11104.294991312101	165
0	35811	11105.624551476002	164
0	35814	11107.60729668627	163
0	35818	11107.624943285246	164
0	35819	11108.918464888469	163
0	35823	11110.168029168913	164
0	35824	11110.175156010152	163
0	35828	11112.009300961312	164
0	35829	11112.046989079216	163
0	35833	11112.297835680723	164
0	35835	11112.713378325447	165
0	35836	11113.949396358827	164
0	35840	11114.839426233162	165
0	35842	11115.363961816633	166
0	35843	11115.923710299121	165
0	35847	11116.159596862309	166
0	35848	11117.649442205975	165
0	35853	11118.959681149224	164
0	35857	11119.546126747732	165
0	35859	11120.033754012468	166
0	35861	11120.122893118953	167
0	35863	11120.199155585339	168
0	35866	11120.916519706721	167
0	35869	11122.133855986992	166
0	35872	11123.725709098416	165
0	35875	11124.97840630396	164
0	35879	11125.439044224461	165
0	35880	11126.560560612219	164
0	35884	11126.989106038304	165
0	35886	11127.57689584683	166
0	35887	11127.91076968352	165
0	35891	11128.051244148442	166
0	35893	11128.70427421255	167
0	35895	11128.997384929623	168
0	35897	11129.307741452879	169
0	35900	11129.59691699783	168
0	35903	11131.110664690497	167
0	35907	11131.127679365937	168
0	35908	11132.75768548737	167
0	35911	11134.049394915278	166
0	35915	11134.05839230108	167
0	35916	11135.517248702819	166
0	35920	11135.953830316979	167
0	35922	11136.674728419908	168
0	35923	11137.315066207225	167
0	35927	11138.067667770979	168
0	35929	11138.157142520565	169
0	35932	11138.805487500342	168
0	35936	11138.877368113635	169
0	35937	11140.127841471719	168
0	35941	11141.363578332258	169
0	35942	11141.448062608043	168
0	35946	11142.103102163254	169
0	35947	11143.080392703066	168
0	35951	11143.33879353397	169
0	35952	11144.564680578584	168
0	35956	11145.092562302731	169
0	35957	11146.454171642499	168
0	35960	11147.911108050333	167
0	35963	11149.359918822186	166
0	35969	11150.77732545412	167
0	35970	11151.058812119091	166
0	35974	11151.129329884911	167
0	35975	11152.773810355203	166
0	35979	11153.084160256843	167
0	35980	11153.986353800656	166
0	35984	11154.349140341211	167
0	35985	11155.32105340513	166
0	35989	11155.405948195702	167
0	35991	11156.727344154025	168
0	35992	11157.027550400259	167
0	35995	11158.549069627026	166
0	35999	11158.57209145491	167
0	36000	11159.927692852938	166
0	36004	11159.950360051204	167
0	36006	11160.5654555747	168
0	36007	11161.540233181441	167
0	36011	11162.69469758828	168
0	36012	11163.327383089835	167
0	36016	11163.819498179616	168
0	36017	11164.889563496808	167
0	36021	11164.895822166298	168
0	36022	11166.466494311976	167
0	36025	11167.766541357922	166
0	36029	11168.023550777054	167
0	36031	11168.36724557556	168
0	36032	11169.011507793354	167
0	36035	11170.370460497985	166
0	36039	11170.616823624186	167
0	36040	11172.184823894898	166
0	36044	11172.701322189373	167
0	36046	11173.391150926816	168
0	36047	11173.866390111136	167
0	36051	11173.921438843563	168
0	36053	11175.290202570202	169
0	36054	11175.682148443001	168
0	36057	11177.487683359	167
0	36060	11178.843325937565	166
0	36063	11180.359718888092	165
0	36067	11181.877851972921	166
0	36069	11181.948638318176	167
0	36070	11182.154135862391	166
0	36074	11182.375058868768	167
0	36075	11183.998577897276	166
0	36079	11184.109811579782	167
0	36081	11184.623823348202	168
0	36083	11185.105619371324	169
0	36085	11185.235950452578	170
0	36086	11185.453295332032	169
0	36090	11186.110638565391	170
0	36091	11186.84102831802	169
0	36095	11187.019867110015	170
0	36096	11188.498021051685	169
0	36100	11189.046830277337	170
0	36101	11190.304295498903	169
0	36105	11190.920979419977	170
0	36106	11192.109094722408	169
0	36109	11193.44022431283	168
0	36113	11193.569738186721	169
0	36114	11194.645347166646	168
0	36117	11195.852366269219	167
0	36121	11197.197397553454	168
0	36122	11197.707337466094	167
0	36125	11199.446877633433	166
0	36129	11200.23536913222	167
0	36131	11200.306960091147	168
0	36133	11201.068201748836	169
0	36134	11201.393107025723	168
0	36139	11202.65738466813	167
0	36142	11204.591480479974	166
0	36146	11205.249038090047	167
0	36148	11206.103276745282	168
0	36149	11206.117176289137	167
0	36153	11206.782015781745	168
0	36154	11207.688169012989	167
0	36158	11208.877523809061	168
0	36159	11209.319791292424	167
0	36164	11211.247483204516	166
0	36167	11212.719530431765	165
0	36171	11213.782445473529	166
0	36172	11214.225836735989	165
0	36175	11215.904889827247	164
0	36179	11217.411739456218	165
0	36180	11217.849894097659	164
0	36184	11219.329260770511	165
0	36185	11219.669030358295	164
0	36189	11219.743563739556	165
0	36190	11220.876697576071	164
0	36194	11221.521321837117	165
0	36195	11222.436240158441	164
0	36198	11224.359820342089	163
0	36201	11225.998298176403	162
0	36204	11227.198677860412	161
0	36208	11227.987693923475	162
0	36209	11229.107603512357	161
0	36213	11229.415984174125	162
0	36215	11229.475376371099	163
0	36216	11230.733041451338	162
0	36220	11231.892144536261	163
0	36221	11232.244838563006	162
0	36224	11233.493109008696	161
0	36228	11233.72664145981	162
0	36230	11234.257436223342	163
0	36231	11235.338664766241	162
0	36234	11237.33138597573	161
0	36237	11238.739304505129	160
0	36241	11239.056885375262	161
0	36243	11239.399960150966	162
0	36245	11239.663010041147	163
0	36247	11240.230093059436	164
0	36248	11240.577345710274	163
0	36251	11242.122763501693	162
0	36255	11243.134729230502	163
0	36257	11243.448939502584	164
0	36258	11243.970250342999	163
0	36262	11244.388644225272	164
0	36263	11245.218449203138	163
0	36266	11247.015405129109	162
0	36270	11248.555814713361	163
0	36271	11248.985851608057	162
0	36275	11249.091342744761	163
0	36277	11249.216153888228	164
0	36278	11250.734951802928	163
0	36281	11252.163984495986	162
0	36284	11253.913032200772	161
0	36287	11255.761159457106	160
0	36291	11256.755994186855	161
0	36294	11257.231754340444	160
0	36298	11259.071051517827	161
0	36299	11259.072393183064	160
0	36302	11260.432494622123	159
0	36306	11261.697641010522	160
0	36307	11261.923430966426	159
0	36311	11261.948883260971	160
0	36313	11262.801066638158	161
0	36315	11263.505572724426	162
0	36317	11263.61349566588	163
0	36318	11263.824604144533	162
0	36322	11265.418513929882	163
0	36323	11265.448732633543	162
0	36327	11265.963717535602	163
0	36328	11266.731889992979	162
0	36332	11268.077671090608	163
0	36333	11268.587882844944	162
0	36337	11268.700687294499	163
0	36339	11268.877297543237	164
0	36340	11269.963406524089	163
0	36344	11270.904874510613	164
0	36345	11271.548680382994	163
0	36349	11272.741090599505	164
0	36350	11273.283253898126	163
0	36354	11274.104530905499	164
0	36355	11274.824638606449	163
0	36359	11275.257433164186	164
0	36360	11276.427739514438	163
0	36364	11276.691178604511	164
0	36365	11277.963610788835	163
0	36369	11278.286039811939	164
0	36370	11279.931586789181	163
0	36374	11280.458917709935	164
0	36375	11281.79679049517	163
0	36379	11283.473540693321	164
0	36380	11283.732344032107	163
0	36384	11283.880846066485	164
0	36385	11285.476798575027	163
0	36389	11286.070432241688	164
0	36390	11287.096522067515	163
0	36393	11288.369067159695	162
0	36396	11289.768460989771	161
0	36400	11290.374744354028	162
0	36403	11291.732171401968	161
0	36406	11293.208642067602	160
0	36409	11294.8000360044	159
0	36413	11295.025533305735	160
0	36415	11295.954111684705	161
0	36416	11296.348895258485	160
0	36419	11297.98982151582	159
0	36423	11298.949005949964	160
0	36424	11299.822647562279	159
0	36427	11301.086600434995	158
0	36431	11301.41820016335	159
0	36433	11301.712192506791	160
0	36434	11302.435444087005	159
0	36437	11303.825837870343	158
0	36441	11304.800583583357	159
0	36443	11305.026435022561	160
0	36444	11305.642660430847	159
0	36447	11307.018101683287	158
0	36450	11308.940746529428	157
0	36453	11310.287502856021	156
0	36457	11311.199386823074	157
0	36458	11311.778677942631	156
0	36461	11313.168677461174	155
0	36465	11313.605730895509	156
0	36467	11314.177098906871	157
0	36468	11314.467930728783	156
0	36472	11314.729793035183	157
0	36474	11314.896182875174	158
0	36476	11315.925030420602	159
0	36477	11316.240327715342	158
0	36480	11317.687125050117	157
0	36484	11318.768853058614	158
0	36486	11318.851844402783	159
0	36487	11319.177768037867	158
0	36491	11319.521336855287	159
0	36492	11320.596444685225	158
0	36495	11321.912541190748	157
0	36500	11323.836787625057	156
0	36504	11324.003436928546	157
0	36505	11325.309693627646	156
0	36509	11326.179729959999	157
0	36511	11326.406117073194	158
0	36512	11326.680677183932	157
0	36516	11327.139850408508	158
0	36517	11327.962757228902	157
0	36521	11329.636564699109	158
0	36522	11329.939282123959	157
0	36525	11331.28809730581	156
0	36529	11332.022673199067	157
0	36531	11332.091434591933	158
0	36532	11332.851720056897	157
0	36536	11333.401739830503	158
0	36537	11334.168265267676	157
0	36541	11335.339359123476	158
0	36542	11335.85344965051	157
0	36546	11336.542768687305	158
0	36547	11337.577799522347	157
0	36550	11338.885741223983	156
0	36554	11339.201639466781	157
0	36556	11340.172872548823	158
0	36557	11340.237644580222	157
0	36561	11340.999623158241	158
0	36562	11341.48109032347	157
0	36565	11342.929179353855	156
0	36568	11344.779374624259	155
0	36572	11344.78741809189	156
0	36574	11345.046504127631	157
0	36575	11346.709232263482	156
0	36579	11347.319396251496	157
0	36581	11347.371003928729	158
0	36583	11347.809077005162	159
0	36584	11348.671879819809	158
0	36588	11349.757966084433	159
0	36590	11350.189054258845	160
0	36591	11350.195115337549	159
0	36595	11350.361933676353	160
0	36596	11352.026285763113	159
0	36599	11353.469240685394	158
0	36603	11353.529604506421	159
0	36605	11353.581769209516	160
0	36606	11355.37428544241	159
0	36610	11355.751127710602	160
0	36612	11356.0733621279	161
0	36613	11356.700513379676	160
0	36617	11357.772040471436	161
0	36618	11357.969948729342	160
0	36621	11359.234354351675	159
0	36625	11361.150858975444	160
0	36626	11361.203199583879	159
0	36629	11362.830651385365	158
0	36633	11363.212178432636	159
0	36635	11364.377865476291	160
0	36637	11364.486801988685	161
0	36638	11364.638642231217	160
0	36642	11365.850209286765	161
0	36643	11366.024917573883	160
0	36647	11367.54248918167	161
0	36648	11367.921356331772	160
0	36652	11368.902242495478	161
0	36653	11369.622332858323	160
0	36656	11371.28950304485	159
0	36662	11371.768358721518	160
0	36663	11372.590003569453	159
0	36667	11373.600816570937	160
0	36668	11374.311701010755	159
0	36672	11374.860715668564	160
0	36674	11375.175845385293	161
0	36675	11375.856456006161	160
0	36679	11375.950546160094	161
0	36681	11376.024137474387	162
0	36683	11376.153863128001	163
0	36684	11377.305273842095	162
0	36688	11377.356275229387	163
0	36690	11377.51845919039	164
0	36692	11378.261962045015	165
0	36693	11378.540249988279	164
0	36696	11380.195660714461	163
0	36700	11380.54801913197	164
0	36701	11381.738108781195	163
0	36705	11382.201296739919	164
0	36706	11382.991698304779	163
0	36710	11383.632850630706	164
0	36711	11384.22499069146	163
0	36714	11385.582609858393	162
0	36717	11386.861025713413	161
0	36720	11388.285991035617	160
0	36724	11388.938186203879	161
0	36725	11389.842801543727	160
0	36728	11391.126539925701	159
0	36731	11392.619036257668	158
0	36735	11393.573459874884	159
0	36736	11393.825645823433	158
0	36739	11395.291962101339	157
0	36743	11395.864612341059	158
0	36744	11396.75573936536	157
0	36747	11398.302615839644	156
0	36750	11400.0337697184	155
0	36754	11401.260182385009	156
0	36756	11401.394820592088	157
0	36759	11401.744676279305	156
0	36763	11402.755838289781	157
0	36765	11402.804943175434	158
0	36766	11403.524135269253	157
0	36769	11405.007491470715	156
0	36773	11405.359003687834	157
0	36775	11405.555695493055	158
0	36777	11406.156778032135	159
0	36778	11406.664714339776	158
0	36781	11407.897116177557	157
0	36784	11409.376380204065	156
0	36788	11409.992761248026	157
0	36790	11410.16303865686	158
0	36791	11411.333564829482	157
0	36795	11412.018224750863	158
0	36796	11412.594779188959	157
0	36800	11413.121077211121	158
0	36801	11414.19687542676	157
0	36805	11416.122792113913	158
0	36806	11416.132914803205	157
0	36810	11416.785420987064	158
0	36811	11417.54831492587	157
0	36815	11418.284784396095	158
0	36817	11418.540774876328	159
0	36818	11419.353636896825	158
0	36822	11420.070856777732	159
0	36824	11420.441822020152	160
0	36825	11421.026769775739	159
0	36829	11422.079957515789	160
0	36830	11422.355460854834	159
0	36834	11423.821288593131	160
0	36835	11423.927228299929	159
0	36839	11423.988092293211	160
0	36841	11424.951057325746	161
0	36842	11425.195766107207	160
0	36846	11425.419403806637	161
0	36847	11426.515057272492	160
0	36851	11426.639525331076	161
0	36852	11428.488834802089	160
0	36855	11430.079941598354	159
0	36859	11430.49763553902	160
0	36861	11431.227916695012	161
0	36863	11431.37341676755	162
0	36864	11431.669236759311	161
0	36867	11433.619848786323	160
0	36870	11435.318334876588	159
0	36874	11435.620470871377	160
0	36876	11435.928843012142	161
0	36877	11436.574951135023	160
0	36880	11438.088407231709	159
0	36884	11439.175305038871	160
0	36886	11439.448780170346	161
0	36888	11439.904035040125	162
0	36889	11440.074820584832	161
0	36893	11440.670441990078	162
0	36894	11441.370384497037	161
0	36897	11442.621633650763	160
0	36901	11444.067715062405	161
0	36902	11444.321826156629	160
0	36906	11444.432924603228	161
0	36908	11445.535170929027	162
0	36909	11446.023499560384	161
0	36913	11446.551487371655	162
0	36915	11446.947690577366	163
0	36916	11447.66291979312	162
0	36920	11449.385559341182	163
0	36921	11449.456838960415	162
0	36925	11450.165287698873	163
0	36926	11450.988228030717	162
0	36929	11452.289078677101	161
0	36933	11452.904857338459	162
0	36935	11453.513686434846	163
0	36936	11453.514375942787	162
0	36940	11453.526334662549	163
0	36942	11454.090277144702	164
0	36943	11455.415135537302	163
0	36946	11457.178568343846	162
0	36950	11457.279866453043	163
0	36951	11458.506638630507	162
0	36956	11459.839648844515	161
0	36959	11461.799747414355	160
0	36963	11462.189374286736	161
0	36965	11463.570007695559	162
0	36967	11463.612505582102	163
0	36968	11463.675102476616	162
0	36971	11465.135253207971	161
0	36974	11466.5180050595	160
0	36977	11467.939337796745	159
0	36981	11468.273723153859	160
0	36982	11469.309338912022	159
0	36985	11470.784368516345	158
0	36989	11472.579569454309	159
0	36990	11472.607124987644	158
0	36994	11472.670639789197	159
0	36995	11474.569967754585	158
0	36999	11475.324014442791	159
0	37000	11476.247678529498	158
0	37003	11477.638722247471	157
0	37006	11479.265043635321	156
0	37010	11480.020311411383	157
0	37011	11480.871895708171	156
0	37015	11481.594281774258	157
0	37016	11482.231895123263	156
0	37020	11482.2868569697	157
0	37021	11483.994898892035	156
0	37025	11484.796245417733	157
0	37026	11485.300933685553	156
0	37029	11486.848440383401	155
0	37032	11488.239329698708	154
0	37036	11488.425938489311	155
0	37037	11489.753314421538	154
0	37041	11490.211004643278	155
0	37042	11491.502790600273	154
0	37046	11491.505031521999	155
0	37048	11492.358148666402	156
0	37050	11492.3625441628	157
0	37051	11492.775546670917	156
0	37054	11494.251235059116	155
0	37058	11494.482671892446	156
0	37060	11495.630369471096	157
0	37063	11496.212512429271	156
0	37067	11496.840798797835	157
0	37069	11497.126427293661	158
0	37071	11497.315276914101	159
0	37073	11497.631177016989	160
0	37074	11497.819613509465	159
0	37078	11498.273229677217	160
0	37079	11499.203676019076	159
0	37083	11499.599569707612	160
0	37085	11500.030947052973	161
0	37086	11500.707787105094	160
0	37090	11501.371380431807	161
0	37092	11501.633023138098	162
0	37094	11501.845832609941	163
0	37095	11502.551909890796	162
0	37099	11502.852498618252	163
0	37100	11504.001831326286	162
0	37104	11504.294485234134	163
0	37106	11504.757321819819	164
0	37107	11505.957579786728	163
0	37111	11505.957828696197	164
0	37112	11507.738520370635	163
0	37115	11509.156613489638	162
0	37119	11509.999516791309	163
0	37120	11511.062680302027	162
0	37124	11511.274305456443	163
0	37125	11513.039650183569	162
0	37129	11513.74785993217	163
0	37130	11514.482791575256	162
0	37134	11514.884686288473	163
0	37135	11515.920299855831	162
0	37139	11516.521609482283	163
0	37141	11517.153583284654	164
0	37142	11517.453358029599	163
0	37145	11518.972515303666	162
0	37149	11519.425250066234	163
0	37150	11520.328112112196	162
0	37154	11521.269575819544	163
0	37155	11522.244599813061	162
0	37159	11522.537220006153	163
0	37161	11523.046060708893	164
0	37164	11523.730129652495	163
0	37167	11525.503351886595	162
0	37171	11526.670064030925	163
0	37173	11527.1864839533	164
0	37174	11527.197005868541	163
0	37178	11528.321180537343	164
0	37179	11528.661452418404	163
0	37182	11530.385957166205	162
0	37186	11530.513215949851	163
0	37188	11531.391026905045	164
0	37189	11531.822276510696	163
0	37192	11533.142558203849	162
0	37196	11533.841772576117	163
0	37197	11534.834558716255	162
0	37201	11535.692762627738	163
0	37202	11536.279983913737	162
0	37206	11536.737552907776	163
0	37208	11537.394303533762	164
0	37209	11537.628362832429	163
0	37213	11538.905927354728	164
0	37214	11538.912933401788	163
0	37218	11539.459904299789	164
0	37220	11539.46976370018	165
0	37221	11540.15128138105	164
0	37225	11541.261020275745	165
0	37226	11541.360059916438	164
0	37230	11541.796449000196	165
0	37231	11542.652286535153	164
0	37234	11544.272038010718	163
0	37238	11545.040631472806	164
0	37239	11545.643274816708	163
0	37243	11546.396681775203	164
0	37244	11546.998563097441	163
0	37248	11547.012473483003	164
0	37249	11548.495426407666	163
0	37253	11548.939636186846	164
0	37254	11550.125506675826	163
0	37258	11550.989342202861	164
0	37260	11551.456447243098	165
0	37261	11552.001378351846	164
0	37264	11553.216153621325	163
0	37268	11554.329546965623	164
0	37269	11554.618311865093	163
0	37273	11555.309907332088	164
0	37274	11556.538162103133	163
0	37278	11556.766520065063	164
0	37282	11557.336758256332	165
0	37283	11558.148989231163	164
0	37286	11559.418714034767	163
0	37289	11560.833426271961	162
0	37293	11561.858319693286	163
0	37294	11562.566043328703	162
0	37298	11562.637540628391	163
0	37300	11563.424380149991	164
0	37301	11564.151163884275	163
0	37304	11565.826713635795	162
0	37308	11566.099915896545	163
0	37310	11566.218546438014	164
0	37311	11567.189518461213	163
0	37315	11567.493419511514	164
0	37316	11569.025958876521	163
0	37320	11570.005627997994	164
0	37321	11570.348708686628	163
0	37324	11571.56122831481	162
0	37328	11572.083430717359	163
0	37330	11572.559079699399	164
0	37331	11573.114105281815	163
0	37334	11575.071529707521	162
0	37338	11576.015762333974	163
0	37340	11576.02768793427	164
0	37341	11576.433596979476	163
0	37346	11578.326597417354	162
0	37350	11578.632193767039	163
0	37351	11579.725840180575	162
0	37354	11581.069646464682	161
0	37360	11582.084718168007	162
0	37362	11582.172844315746	163
0	37363	11582.354168320282	162
0	37366	11584.116185667946	161
0	37370	11585.032874401467	162
0	37371	11585.325648824519	161
0	37375	11585.535404669328	162
0	37376	11587.246697258225	161
0	37380	11587.471662023198	162
0	37382	11588.231220066458	163
0	37383	11588.51558696015	162
0	37388	11590.011162086597	161
0	37391	11591.645645813665	160
0	37395	11592.501885595997	161
0	37396	11592.998809593751	160
0	37400	11593.059273935061	161
0	37401	11594.533960066012	160
0	37404	11596.507105165555	159
0	37407	11598.096921717211	158
0	37411	11598.628470398942	159
0	37415	11599.58835360287	160
0	37416	11599.762929095163	159
0	37420	11600.969557357901	160
0	37421	11601.452834723911	159
0	37425	11601.657591934228	160
0	37426	11602.739807851075	159
0	37430	11604.001299476121	160
0	37431	11604.096444268918	159
0	37434	11605.922837476081	158
0	37437	11607.433341020181	157
0	37441	11607.652676026531	158
0	37443	11607.705139684839	159
0	37444	11609.041655284002	158
0	37448	11609.772144409998	159
0	37449	11610.957771867349	158
0	37453	11612.811127767667	159
0	37454	11612.940137205108	158
0	37458	11612.948639933247	159
0	37460	11613.590978303176	160
0	37461	11614.215900649152	159
0	37464	11615.649539562709	158
0	37468	11617.144766559347	159
0	37469	11617.155408771917	158
0	37473	11618.012402417965	159
0	37474	11618.391994910523	158
0	37478	11618.948363965701	159
0	37479	11620.022232481673	158
0	37483	11620.306500425549	159
0	37485	11621.140515126137	160
0	37486	11621.772295550651	159
0	37490	11622.26109492417	160
0	37491	11623.439210459611	159
0	37494	11625.10922510626	158
0	37497	11626.603100164069	157
0	37500	11628.352757513544	156
0	37504	11629.099328279684	157
0	37505	11630.112355512774	156
0	37509	11630.144328090094	157
0	37511	11630.287730596684	158
0	37512	11631.7858302396	157
0	37516	11632.545174306904	158
0	37517	11633.465138043484	157
0	37520	11634.734545399828	156
0	37524	11635.6908721107	157
0	37525	11636.038331962025	156
0	37529	11637.310789502638	157
0	37530	11637.330864040202	156
0	37534	11637.541708120097	157
0	37535	11638.537846359073	156
0	37539	11638.865017100252	157
0	37540	11639.935505609608	156
0	37543	11641.651797635688	155
0	37546	11642.901490958056	154
0	37550	11644.241596512639	155
0	37551	11644.746388297922	154
0	37555	11644.880195821732	155
0	37556	11646.257625600717	154
0	37560	11646.385197858147	155
0	37562	11646.87180545535	156
0	37563	11648.091230812504	155
0	37567	11648.201687084197	156
0	37569	11648.627609108019	157
0	37570	11649.396965302362	156
0	37574	11649.747271147169	157
0	37575	11650.867201851702	156
0	37579	11652.052943328573	157
0	37581	11652.348850056986	158
0	37582	11652.452859465613	157
0	37585	11654.444476139753	156
0	37591	11655.145606738928	157
0	37593	11655.778132453346	158
0	37594	11655.834626546896	157
0	37597	11657.367557081974	156
0	37601	11657.511215493572	157
0	37603	11657.788000614479	158
0	37605	11658.493736311248	159
0	37606	11658.689480005785	158
0	37610	11658.848318303643	159
0	37611	11660.419739493749	158
0	37614	11661.979209775685	157
0	37618	11663.018259515959	158
0	37619	11663.641818283706	157
0	37623	11663.724369046364	158
0	37625	11665.021584009607	159
0	37627	11665.071188724274	160
0	37628	11665.081585428699	159
0	37631	11666.616755002386	158
0	37635	11667.08941917429	159
0	37636	11668.09436419627	158
0	37640	11668.384915975536	159
0	37642	11668.423123376244	160
0	37644	11669.322239890542	161
0	37645	11669.514363148085	160
0	37648	11671.129502525947	159
0	37653	11672.887488150991	158
0	37657	11673.672823167298	159
0	37658	11674.744937312811	158
0	37662	11675.115833279338	159
0	37664	11675.292466364766	160
0	37665	11676.437372371576	159
0	37668	11678.244644566274	158
0	37672	11678.341368199279	159
0	37673	11679.759095552585	158
0	37677	11679.849713880962	159
0	37678	11681.56407650823	158
0	37682	11682.090826332662	159
0	37683	11683.017116402669	158
0	37687	11683.107595187705	159
0	37689	11684.424770657454	160
0	37690	11684.681168070642	159
0	37694	11685.240599249683	160
0	37695	11686.061845891384	159
0	37699	11686.945240479822	160
0	37700	11687.690823802745	159
0	37704	11688.592768208352	160
0	37706	11689.214650260924	161
0	37707	11689.560129710494	160
0	37710	11691.148586286998	159
0	37714	11691.302162062065	160
0	37715	11692.801924894212	159
0	37719	11693.37708627447	160
0	37721	11694.156773908664	161
0	37722	11694.16056257358	160
0	37726	11694.924469378622	161
0	37727	11696.099680764994	160
0	37731	11696.47861913762	161
0	37732	11697.535840768015	160
0	37736	11697.809669315179	161
0	37737	11699.530620478114	160
0	37741	11699.849227721145	161
0	37743	11700.933085109761	162
0	37744	11701.090566963723	161
0	37748	11701.227232419737	162
0	37750	11701.405929359666	163
0	37751	11702.446861025153	162
0	37755	11702.741749926166	163
0	37756	11703.936204167476	162
0	37759	11705.89998163732	161
0	37765	11706.722032761056	162
0	37767	11706.853251850512	163
0	37768	11707.541132239087	162
0	37771	11709.097459934673	161
0	37775	11709.26097346736	162
0	37777	11709.429954344679	163
0	37779	11709.68158640527	164
0	37780	11710.36128798595	163
0	37783	11711.633656340487	162
0	37787	11712.776590868667	163
0	37788	11713.259885863237	162
0	37792	11713.705898913946	163
0	37793	11714.927973643526	162
0	37797	11715.174980302292	163
0	37799	11715.641433338754	164
0	37800	11716.129921759128	163
0	37804	11717.444505344063	164
0	37805	11717.788178144045	163
0	37808	11719.192818662174	162
0	37812	11719.500542516545	163
0	37813	11720.879356511332	162
0	37817	11721.716030616523	163
0	37818	11722.428457055822	162
0	37822	11723.24155808361	163
0	37823	11723.737309875362	162
0	37827	11724.107395253535	163
0	37829	11724.460929824106	164
0	37830	11725.449867793195	163
0	37833	11727.080982938245	162
0	37837	11728.314205701936	163
0	37838	11728.45784642233	162
0	37842	11728.563809410884	163
0	37844	11729.717002359575	164
0	37845	11730.067394006275	163
0	37848	11731.541668792464	162
0	37852	11732.296340642665	163
0	37853	11732.865214346185	162
0	37856	11734.179054602258	161
0	37859	11735.389397231698	160
0	37863	11735.708928701942	161
0	37865	11736.135434936233	162
0	37866	11736.868206967436	161
0	37870	11736.917688774844	162
0	37871	11738.598343346291	161
0	37874	11740.445168570638	160
0	37878	11740.802355790939	161
0	37879	11742.288441336736	160
0	37883	11742.35979715052	161
0	37885	11743.907916693784	162
0	37886	11744.097790928207	161
0	37889	11745.518919312417	160
0	37893	11746.116743432414	161
0	37894	11747.0040239854	160
0	37898	11747.497388050621	161
0	37899	11748.451324546731	160
0	37903	11749.641914770221	161
0	37904	11749.999494078777	160
0	37907	11751.55530315379	159
0	37911	11751.596199164952	160
0	37913	11752.338779498176	161
0	37914	11752.763356890924	160
0	37917	11754.570376259669	159
0	37921	11755.459109457709	160
0	37922	11756.313599231488	159
0	37926	11757.196176886994	160
0	37928	11757.639615768697	161
0	37930	11757.796261287967	162
0	37931	11758.30465189351	161
0	37934	11760.024118793218	160
0	37938	11761.085166511092	161
0	37940	11761.397508372141	162
0	37941	11761.528927146292	161
0	37945	11762.409544643114	162
0	37946	11763.374582390136	161
0	37950	11763.582949364742	162
0	37951	11764.808016884721	161
0	37955	11764.830603897455	162
0	37957	11764.919072730231	163
0	37958	11766.692057489439	162
0	37961	11768.103494085766	161
0	37965	11768.25833456531	162
0	37966	11769.558279213518	161
0	37970	11770.402439072884	162
0	37972	11770.622534512826	163
0	37973	11771.531598944984	162
0	37977	11772.090555489547	163
0	37978	11772.919339641951	162
0	37981	11774.164921769895	161
0	37985	11774.277841454411	162
0	37987	11774.736729016205	163
0	37988	11775.461234511085	162
0	37992	11776.971637773367	163
0	37994	11777.227362153413	164
0	37995	11777.337171991937	163
0	37998	11778.599953399994	162
0	38002	11778.757830641982	163
0	38003	11780.153465430834	162
0	38007	11780.215923957102	163
0	38009	11780.327963668973	164
0	38013	11781.254623016282	165
0	38014	11782.092341203079	164
0	38018	11782.268380871887	165
0	38019	11783.494972812035	164
0	38023	11784.121398123624	165
0	38024	11785.06362344271	164
0	38027	11786.264205864281	163
0	38030	11787.628075521276	162
0	38033	11789.117855202243	161
0	38037	11789.745005373647	162
0	38038	11790.408733709924	161
0	38042	11791.948781131828	162
0	38043	11792.276071267225	161
0	38046	11794.062715409346	160
0	38050	11795.201286049987	161
0	38051	11796.005277448542	160
0	38055	11796.41090347041	161
0	38057	11797.362197491974	162
0	38058	11797.889014407456	161
0	38062	11799.251990570926	162
0	38064	11799.753901272246	163
0	38065	11799.763926424854	162
0	38069	11801.045819881231	163
0	38070	11801.293647938058	162
0	38073	11802.851091642514	161
0	38076	11804.315098976366	160
0	38080	11805.371123255144	161
0	38081	11805.814004841469	160
0	38085	11807.021954674119	161
0	38086	11807.458196420058	160
0	38090	11808.547142344011	161
0	38091	11808.761468599386	160
0	38095	11809.383485981487	161
0	38096	11810.297944344975	160
0	38100	11810.372742158236	161
0	38101	11811.905493532143	160
0	38105	11812.385584723686	161
0	38106	11813.899878807388	160
0	38110	11814.228731223782	161
0	38112	11815.149606027677	162
0	38113	11815.562049174517	161
0	38117	11816.053750915559	162
0	38118	11817.461188415646	161
0	38124	11818.036254192674	162
0	38126	11819.055985352294	163
0	38127	11819.080759279079	162
0	38131	11819.774096208492	163
0	38133	11820.146658146884	164
0	38134	11820.928497342042	163
0	38140	11821.699022490413	164
0	38141	11822.489319435901	163
0	38145	11823.553338620535	164
0	38146	11824.056675258114	163
0	38150	11824.276281466348	164
0	38151	11825.882001166253	163
0	38154	11827.225383433162	162
0	38158	11828.046480341065	163
0	38160	11828.231263273091	164
0	38162	11828.630576933855	165
0	38164	11828.815487023152	166
0	38166	11828.938892516433	167
0	38167	11829.167863365656	166
0	38170	11830.824373077622	165
0	38173	11832.147610211021	164
0	38176	11833.633379104196	163
0	38180	11834.756483230192	164
0	38181	11835.061918692498	163
0	38185	11836.845198825939	164
0	38186	11836.938723254225	163
0	38189	11838.316681540406	162
0	38193	11838.461544623545	163
0	38195	11838.504730910283	164
0	38197	11839.378142149164	165
0	38199	11839.381882547711	166
0	38200	11839.754810361213	165
0	38204	11840.308578584126	166
0	38205	11841.270823534972	165
0	38209	11841.60590604608	166
0	38211	11841.654137038801	167
0	38213	11842.067765130858	168
0	38214	11842.541307941287	167
0	38217	11844.248096372209	166
0	38221	11845.643498243435	167
0	38223	11845.672087891016	168
0	38224	11846.127844152435	167
0	38228	11846.987621743472	168
0	38230	11846.99301695316	169
0	38231	11847.453153518423	168
0	38235	11847.924871086379	169
0	38237	11847.94239638117	170
0	38239	11848.161072063337	171
0	38240	11849.178164977416	170
0	38245	11850.825249779433	169
0	38249	11851.289593597354	170
0	38250	11852.314002086431	169
0	38254	11852.442721446277	170
0	38256	11853.359739759903	171
0	38258	11853.43036396923	172
0	38259	11853.754412825801	171
0	38262	11855.276898917579	170
0	38266	11855.777074754117	171
0	38268	11855.837547844784	172
0	38269	11856.86363278518	171
0	38273	11857.205232916224	172
0	38274	11858.516868712777	171
0	38278	11858.71928993619	172
0	38279	11859.888293124759	171
0	38283	11860.902138511366	172
0	38284	11861.42889395284	171
0	38287	11863.360898501449	170
0	38291	11863.770296479476	171
0	38292	11864.944866795302	170
0	38296	11865.093665629157	171
0	38297	11866.930292962887	170
0	38301	11867.504053550728	171
0	38302	11868.912626727321	170
0	38306	11869.272236072783	171
0	38307	11870.799775979877	170
0	38311	11872.104202037653	171
0	38312	11872.122823847108	170
0	38315	11874.032819310971	169
0	38319	11875.363894846813	170
0	38320	11875.764031093404	169
0	38324	11875.788883360167	170
0	38325	11877.498822111287	169
0	38329	11877.758323684692	170
0	38331	11878.796040533082	171
0	38332	11878.945992078842	170
0	38335	11880.221929989406	169
0	38339	11880.971939254675	170
0	38340	11881.506180439354	169
0	38344	11882.48904203124	170
0	38346	11882.868773050818	171
0	38348	11883.105585897578	172
0	38349	11883.44485465067	171
0	38353	11883.640426005951	172
0	38354	11885.215183219337	171
0	38358	11885.88714866249	172
0	38359	11886.540642601089	171
0	38363	11886.578734245835	172
0	38365	11886.808942957552	173
0	38366	11888.066645807238	172
0	38369	11889.998052640283	171
0	38375	11890.570289423032	172
0	38376	11891.235054958077	171
0	38380	11892.259408722585	172
0	38381	11892.510054811487	171
0	38385	11894.074471128798	172
0	38386	11894.192640367733	171
0	38390	11894.674150383045	172
0	38392	11895.826533604202	173
0	38393	11895.920758788125	172
0	38397	11896.385194197107	173
0	38398	11897.499633749226	172
0	38402	11897.540277043625	173
0	38403	11898.727369765216	172
0	38407	11899.134443009322	173
0	38408	11899.939738714719	172
0	38412	11900.56099738997	173
0	38413	11901.178365475336	172
0	38416	11902.848471739912	171
0	38420	11902.902962778022	172
0	38422	11904.355300098678	173
0	38423	11904.661376704299	172
0	38427	11904.947319558245	173
0	38429	11906.374863851198	174
0	38430	11906.474268424162	173
0	38434	11906.836789648343	174
0	38435	11907.690277822526	173
0	38439	11908.839046367182	174
0	38440	11909.115446498455	173
0	38444	11909.877729430272	174
0	38446	11910.171562716181	175
0	38447	11911.103589069122	174
0	38450	11912.484819497564	173
0	38454	11913.500493507498	174
0	38455	11914.151068692492	173
0	38459	11914.733232003855	174
0	38460	11915.620801942819	173
0	38464	11916.540405519419	174
0	38465	11917.297638924443	173
0	38469	11918.793851803911	174
0	38470	11918.932961347722	173
0	38473	11920.433500489057	172
0	38477	11920.64676386492	173
0	38478	11922.108954263129	172
0	38481	11923.942589659453	171
0	38484	11925.675519188144	170
0	38488	11925.812084398667	171
0	38490	11926.105493231141	172
0	38491	11927.467849602387	171
0	38495	11929.087415971956	172
0	38496	11929.162976041832	171
0	38500	11929.281216948716	172
0	38501	11930.77881871725	171
0	38505	11930.795306120186	172
0	38507	11931.069315604288	173
0	38508	11932.217033484974	172
0	38512	11932.368800259345	173
0	38513	11933.735285341763	172
0	38519	11935.373821437934	173
0	38520	11935.669320581132	172
0	38524	11937.512446041534	173
0	38525	11937.562291094684	172
0	38529	11938.640891166059	173
0	38530	11939.237395209097	172
0	38534	11939.862671218457	173
0	38535	11940.485174378589	172
0	38541	11941.172378194625	173
0	38542	11942.27386976967	172
0	38545	11943.659989066444	171
0	38549	11944.95650901373	172
0	38550	11945.381535458401	171
0	38554	11945.462587253691	172
0	38556	11945.956591186656	173
0	38557	11947.124666037992	172
0	38561	11947.171678893799	173
0	38563	11948.359024149169	174
0	38564	11948.75242818857	173
0	38567	11950.081656380765	172
0	38571	11950.78966116329	173
0	38573	11950.932370678459	174
0	38574	11951.569150063231	173
0	38578	11952.169036413196	174
0	38579	11953.466022836439	173
0	38583	11953.928442885913	174
0	38584	11955.041771714784	173
0	38588	11955.115350622881	174
0	38590	11955.414113159051	175
0	38592	11955.828727763599	176
0	38594	11956.029074522022	177
0	38595	11956.732167285703	176
0	38598	11958.454521252423	175
0	38602	11958.983086794659	176
0	38603	11959.805880252294	175
0	38607	11961.510821933299	176
0	38608	11961.514009393587	175
0	38612	11962.671258490615	176
0	38614	11962.718808392937	177
0	38615	11963.037291348375	176
0	38619	11963.335162943664	177
0	38620	11964.274010693304	176
0	38623	11965.803873249911	175
0	38627	11966.37372151131	176
0	38628	11967.2121019684	175
0	38631	11969.154961397707	174
0	38635	11969.688480386033	175
0	38637	11969.719588449253	176
0	38638	11971.138068218551	175
0	38642	11971.69180324252	176
0	38643	11972.919745253607	175
0	38647	11973.064327725731	176
0	38648	11974.860708855673	175
0	38654	11976.408900686408	176
0	38655	11976.531562018044	175
0	38659	11977.74749629192	176
0	38660	11978.446207481086	175
0	38663	11980.191067061595	174
0	38667	11980.91111019853	175
0	38669	11980.975260353744	176
0	38670	11981.595645875319	175
0	38674	11982.944422487477	176
0	38675	11983.320255582801	175
0	38679	11983.669616225665	176
0	38680	11984.844422450869	175
0	38684	11985.38858471741	176
0	38686	11985.43655703712	177
0	38687	11986.230785154014	176
0	38690	11987.746684364437	175
0	38694	11988.923164752181	176
0	38695	11989.041414820238	175
0	38699	11989.970384283919	176
0	38700	11990.564887024856	175
[...]
6	84933	26460.647684060606	1.392831683345
6	84947	26466.635451238985	1.277509344369
6	84971	26473.151678341824	1.260126660205
6	85051	26496.107808256161	3.473569763603
6	85056	26497.434791656223	1.326983400062
6	85095	26512.719437858474	5.729603764649
6	85124	26517.689799580362	13.039743465047
6	85134	26520.721135408629	8.940525297879
6	85156	26526.643710982066	31.059334184671
6	85181	26534.209943962482	71.541091979205
6	85209	26543.42841940952	1.648544341885
6	85231	26550.063145372472	13.932546431832
6	85244	26555.13200910037	21.798512085306
6	85299	26571.625693206504	19.553241018588
6	85347	26585.36392845811	1.863094965927
6	85374	26592.809329799205	5.028916954211
6	85412	26605.175195450164	6.975725677106
6	85415	26606.397861772976	35.941493438111
6	85425	26609.872687891512	11.788319519073
6	85543	26646.865080309486	1.292102340981
6	85548	26648.66541386397	1.800333554484
6	85558	26651.609601916013	6.232524838028
6	85577	26660.37434756962	7.171987516813
6	85601	26666.696000719829	1.650451040268
6	85630	26674.573542313851	3.319379342349
6	85647	26680.005034338139	20.678248697858
6	85650	26681.61994249282	1.614908154681
6	85653	26683.203140910357	42.070123534119
6	85656	26684.599474966168	4.141228279259
6	85710	26702.673299137516	17.610272956251
6	85741	26710.658649888647	1.873523038998
6	85746	26712.407123227244	19.787948662082
6	85776	26721.944586723311	5.891079035358
6	85782	26724.465152373923	39.355981098525
6	85795	26729.638923358371	14.266295175015
6	85803	26733.412318027405	1.97088109348
6	85808	26734.94205273745	1.529734710045
6	85818	26738.134397114454	1.656158132479
6	85826	26740.789652216634	1.450316776335
6	85834	26743.745748498676	26.685893577629
6	85867	26754.183109597129	7.025697815559
6	85875	26757.386833107856	1.641758514568
6	85885	26759.886693858926	55.941080144818
6	85900	26764.387519836438	26.106279085541
6	85913	26768.831344661873	21.429412330724
6	85938	26776.991495731111	40.626864920733
6	85949	26782.219260049808	15.445511834899
6	85962	26787.001956256861	7.038055063223
6	85972	26789.867114921482	6.621174927646
6	85978	26792.728782826113	73.851331301417
6	85990	26795.883522300991	6.452894449343
6	86012	26801.764855648029	3.858430572053
6	86022	26805.049879791971	9.106158492204
6	86052	26814.657720115047	9.785017789459
6	86060	26817.534801054758	6.254842275067
6	86063	26818.857604918827	3.040534494502
6	86068	26820.628907028039	7.62023545174
6	86076	26823.354931578612	1.293142856658
6	86084	26827.017766893668	9.375756370675
6	86089	26828.34179150035	11.30758808027
6	86136	26842.131395150731	5.767494729399
6	86146	26844.79886668847	1.404917291366
6	86156	26847.759141766476	1.416123300232
6	86295	26890.387358353298	36.73039464287
6	86325	26899.607282793347	18.611415519255
6	86339	26902.186829810787	7.293245684213
6	86347	26905.124030184199	1.466447969899
6	86357	26908.77289655899	9.967571342067
6	86391	26917.567339035135	14.195063686836
6	86425	26930.213141306501	9.148150566483
6	86430	26932.177006160852	11.961485514411
6	86522	26960.291700573649	9.533530983695
6	86611	26988.58662079257	1.226129453443
6	86619	26991.325398656735	10.993500340129
6	86631	26994.258332599894	11.536991965997
6	86672	27004.913040275879	14.09607264717
6	86675	27006.867544095039	35.273092690495
6	86702	27015.89551759009	4.460555750081
6	86717	27021.145760032914	11.596254751389
6	86720	27023.016957710504	20.802497023312
6	86747	27030.714167343832	24.771141646908
6	86752	27032.415780843801	6.532221789165
6	86771	27036.949952930033	20.070585784063
6	86781	27039.698268104538	24.225995612058
6	86796	27044.893257802546	19.633248653649
6	86814	27051.809248507961	13.850887013043
6	86844	27060.554604558468	23.112008703128
6	86856	27063.844480312809	1.751652983017
6	86864	27067.273109009683	14.717979496968
6	86928	27086.446188217966	1.225237179361
6	86969	27097.081138586072	16.191824480522
6	87037	27118.688521148829	20.848421386025
6	87050	27123.046800450428	9.424838755075
6	87131	27146.864390639593	5.722506385417
6	87151	27153.188838559766	7.977486429254
6	87173	27159.874981323075	5.513967214909
6	87183	27163.406902626161	15.914736148406
6	87189	27166.202412501354	5.421014411691
6	87204	27170.368576671746	1.294159461185
6	87232	27179.903697852608	10.875862245667
6	87250	27185.865594460261	1.568404812925
6	87270	27192.847703007799	13.782373531429
6	87301	27203.349160124365	32.99162637831
6	87309	27206.028520750258	3.439148448578
6	87321	27209.508713285629	20.467816830018
6	87324	27211.192703734901	6.070048409259
6	87345	27217.804000130858	9.516596960232
6	87348	27219.636466459002	14.635606632614
6	87403	27237.48097889014	20.733216005366
6	87408	27239.34588736799	13.09357104951
6	87465	27255.936064830428	17.936950605762
6	87500	27267.27095277608	5.123698918825
6	87520	27273.225281747622	22.865100307475
6	87525	27275.111737263767	27.95340380958
6	87536	27276.631353986641	12.92101535889
6	87586	27289.621147545246	7.523781076883
6	87623	27302.136384462572	12.987843155466
6	87632	27303.893446627825	17.524083025873
6	87653	27311.64686491043	18.848321098558
6	87678	27319.552998781397	25.141802348597
6	87727	27336.272399149469	8.783185346312
6	87732	27338.226179112873	6.384554493616
6	87763	27346.004126491591	6.723815881934
6	87771	27349.161133540802	43.594914115223
6	87807	27358.87242825889	7.629431136853
6	87848	27369.068653499716	5.597033599003
6	87873	27377.561643694722	1.749441214278
6	87950	27402.970274918349	10.124670564631
6	87953	27404.259979663426	1.289704745077
6	87960	27405.940248826342	1.680269162916
6	87968	27408.865384303788	25.453399227994
6	87973	27410.172595743658	13.186226722915
6	87976	27411.851212484026	7.935604862045
6	87994	27417.618633194463	57.148531775265
6	87999	27419.390927976565	42.854784958714
6	88019	27425.419552248911	59.337589995264
6	88024	27427.402464461149	16.385865117882
6	88039	27432.283689351947	26.715382013533
6	88042	27433.550684218117	1.26699486617
6	88072	27442.175770517447	18.279502814809
6	88119	27456.351116057867	10.639442797962
6	88152	27467.010090000749	3.106118434506
6	88199	27481.042617852621	29.778751697884
6	88229	27491.471708097316	8.866949412702
6	88267	27504.487912019349	5.634394441437
6	88306	27514.564896636464	2.792656966651
6	88313	27516.425980615624	16.995517203222
6	88327	27519.846508279264	23.406732734694
6	88335	27522.362855412818	32.847514009424
6	88383	27535.10560283792	17.277118773584
6	88416	27546.101476625175	5.228250873238
6	88428	27549.434830380053	1.97603326533
6	88433	27551.246090754688	10.87126320429
6	88438	27553.030097544573	4.137763987687
6	88464	27562.609360600085	15.261727155417
6	88584	27603.243334988884	12.934425756126
6	88595	27607.796272985085	5.100896739931
6	88600	27609.060591084889	19.306292098086
6	88603	27610.697468328855	20.704426648887
6	88628	27618.571717827773	21.222639682799
6	88720	27644.177704382694	3.626273522707
6	88744	27651.323402578391	9.507315848726
6	88759	27656.317626377203	1.682370630279
6	88762	27658.120517010995	52.783372307641
6	88765	27659.354257038803	14.189992208968
6	88800	27671.571409534112	1.709918540716
6	88871	27692.905615974972	1.560701048002
6	88921	27708.052264844822	7.405585138097
6	88943	27714.425801141757	3.813129385576
6	88949	27717.767934712219	4.606482776834
6	88983	27727.051963949027	41.798575892462
6	89065	27753.272158510995	1.907163864933
6	89089	27759.911115191331	16.427301042958
6	89112	27767.201916009201	11.023833514793
6	89115	27768.477947188927	1.276031179726
6	89128	27773.466548550701	6.508520295202
6	89151	27778.08188609892	1.576316700131
6	89154	27779.827033838085	1.745147739165
6	89184	27789.882707828111	3.415787490918
6	89209	27801.558418586864	9.792840753251
6	89226	27806.957797755501	19.541853410697
6	89243	27812.107716717957	1.803330326639
6	89275	27821.120846341565	5.71266512142
6	89302	27829.577328525312	10.781156607565
6	89305	27831.324732601098	45.910163130924
6	89308	27833.324526709146	5.682979597574
6	89346	27845.792798496611	1.998387258127
6	89373	27853.371630373611	18.542463001736
6	89380	27855.142060249685	1.770429876074
6	89386	27857.820028282902	1.316866979189
6	89391	27859.11385439021	10.41334741625
6	89397	27862.411740276417	1.483117078803
6	89412	27867.33103869093	1.821343981288
6	89501	27895.505467484904	1.744534887746
6	89519	27901.952660632518	35.959008551266
6	89531	27905.258738235955	9.923732628964
6	89549	27911.154103879455	1.269497348368
6	89554	27912.451302129413	6.728145692267
6	89564	27915.675648196425	8.81136495405
6	89597	27926.36705313922	10.700892819955
6	89649	27942.174665107215	15.501910210951
6	89669	27948.398367110836	12.472849287359
6	89687	27954.289730472128	4.492992085611
6	89697	27957.922756083506	34.204794137942
6	89718	27965.306984659108	14.869278013354
6	89723	27966.7229782872	3.136390598154
6	89763	27979.419021920497	29.968853108897
6	89884	28015.453444126257	1.220196037367
6	89895	28017.276339032137	4.308177056412
6	89922	28025.856611203225	6.867983245587
6	89927	28027.470239055538	1.613627852313
6	89985	28047.302854436083	17.10391561564
6	90013	28057.045824206998	7.806742007746
6	90085	28079.889943613861	21.180058065195
6	90088	28081.321207406376	1.431263792515
6	90100	28084.935591669758	4.580897167511
6	90115	28089.902123360713	6.251902237146
6	90120	28091.247789274347	17.379567023636
6	90128	28094.162381965113	18.061416338416
6	90131	28096.083969956082	8.857617329318
6	90136	28097.480603183438	4.431237783702
6	90144	28100.982692337227	3.170318340087
6	90159	28105.366076500346	51.017307194598
6	90162	28106.692814884898	1.326738384552
6	90172	28109.762427167971	12.870516128673
6	90212	28123.383895035465	77.436240249974
6	90217	28125.337822763254	12.417309879509
6	90228	28129.287987978389	17.127305296159
6	90291	28151.794753327412	21.813159313146
6	90320	28160.021439184812	7.642613297414
6	90325	28161.342418866237	13.234798199794
6	90381	28177.784110889402	34.793038191765
6	90393	28181.409519582432	42.903586021656
6	90422	28188.777915467513	12.33093546964
6	90486	28207.785973036292	17.489518768701
6	90545	28223.934823281322	11.966520385402
6	90567	28229.843307990398	1.420211319625
6	90605	28242.398182546164	12.109610026433
6	90623	28245.583409333232	1.545699882135
6	90626	28247.420167156312	22.819178523706
6	90640	28253.998675686683	6.38258305657
6	90657	28258.548440977189	4.71133175092
6	90697	28271.457377458553	1.856158863008
6	90721	28277.749748406748	5.429260157527
6	90773	28293.259938151019	49.444707691923
6	90801	28303.329672273809	6.315618859956
6	90811	28306.749367026987	42.629390774081
6	90829	28312.199725556935	21.625480505724
6	90832	28313.998318551297	4.044856595759
6	90966	28354.149135962317	14.98147704779
6	90994	28363.340225281569	32.863522406346
6	91009	28368.18133003414	1.603178689815
6	91037	28378.406437907371	1.790691342764
6	91059	28385.37661873028	4.538724441093
6	91072	28389.677686297524	10.101478994893
6	91082	28393.365479676242	7.107029867268
6	91088	28396.178342263776	10.144503412063
6	91093	28397.908267946172	1.729925682396
6	91101	28401.171656642671	26.662963320716
6	91106	28402.426427231173	8.812016927322
6	91122	28406.343535300906	1.959104446322
6	91161	28417.199388984966	4.263347888013
6	91171	28420.196741419289	5.046956524137
6	91200	28427.853508675662	38.900248124397
6	91203	28429.491499620122	29.752630382642
6	91233	28438.332084090454	13.468732911299
6	91246	28443.18965565302	1.587393146381
6	91261	28447.288072285806	1.281161540188
6	91274	28451.902322289912	35.150475375211
6	91307	28463.493755524612	3.758985617806
6	91329	28469.530678959569	6.227000784348
6	91332	28470.799425995542	1.268747035973
6	91335	28472.798915275192	1.99948927965
6	91338	28474.083674096508	13.361786587223
6	91341	28475.622040022543	5.033902411086
6	91359	28481.951352728537	1.809504241124
6	91364	28483.639508485987	11.089521058754
6	91369	28485.320704611397	45.912149932611
6	91386	28493.104689732573	1.336576728709
6	91396	28496.31487643142	1.794320573658
6	91405	28498.29228584022	1.9774094088
6	91412	28499.735412140942	9.29955418294
6	91451	28511.303169740556	8.590592306705
6	91532	28534.551357742405	47.810994817498
6	91566	28544.253793440765	1.983291402087
6	91623	28561.954353777697	1.883552515693
6	91631	28564.95070396327	22.359868728086
6	91639	28568.272900982206	6.152863429972
6	91700	28586.424935900425	13.693899012626
6	91742	28598.238052799743	10.944021701322
6	91747	28599.579256380167	38.317426065251
6	91750	28601.003064253558	23.569219264047
6	91826	28621.622300754677	10.517791267382
6	91836	28624.826096794758	6.26535764175
6	91858	28631.30272734743	8.856878659821
6	91876	28637.803988157962	23.29154963087
6	91879	28639.390971254375	1.586983096413
6	91923	28652.922251036768	35.366939452458
6	91969	28666.192713381356	1.404835658893
6	91981	28669.188143642252	4.047754661929
6	92054	28694.017968683695	1.216860315017
6	92071	28698.780986013642	1.961041345634
6	92120	28712.740113735205	1.427536981553
6	92133	28717.803646577714	23.723451680154
6	92148	28721.796774390718	3.81632991546
6	92153	28723.322130839905	5.155936863358
6	92203	28739.5251961181	3.193988227824
6	92249	28754.755620079121	1.320561975427
6	92304	28768.755636240921	1.495846091211
6	92321	28773.719163843624	5.156074868715
6	92324	28775.337814818144	15.833766088174
6	92332	28778.436499339723	1.705084426329
6	92475	28820.789511556928	3.378155413305
6	92478	28822.0495631557	32.026122602008
6	92486	28825.175660395254	1.702185857296
6	92492	28828.321969608221	44.603152479402
6	92497	28829.676624220986	3.706619312948
6	92508	28834.931850339476	23.230748284824
6	92518	28838.033173522729	10.18361667873
6	92521	28840.02444319446	3.507586225708
6	92524	28841.925678611923	1.901235417463
6	92583	28861.981921235104	9.325133788419
6	92601	28865.120554214348	28.043481941666
6	92608	28867.012446661112	13.612898496227
6	92655	28881.780940687847	21.459456179909
6	92665	28885.551171845947	44.648460231837
6	92668	28886.76323391125	59.640254691909
6	92687	28894.345061352853	1.835641877912
6	92709	28900.143327421699	1.729102813825
6	92741	28910.003118355948	20.6686315595
6	92786	28925.037103247273	26.242760042124
6	92826	28938.266449779462	4.828801261527
6	92871	28949.856217703228	1.319019581378
6	92950	28969.602311662587	23.719172281738
6	93034	28991.579604373875	16.857783213134
6	93076	29003.146494195427	4.521008052217
6	93097	29010.949674067089	18.948677254398
6	93136	29022.983449102939	21.752077145514
6	93152	29029.410965037719	1.206474268809
6	93211	29045.702929998377	32.624559782831
6	93228	29049.92625161838	35.705334273543
6	93236	29053.059282566609	1.610193029977
6	93286	29068.988562277148	33.061262726115
6	93334	29081.789090377653	22.217215596171
6	93372	29092.27529793922	6.510246347358
6	93421	29105.960441249983	1.787184831314
6	93446	29114.101886152104	20.700909263385
6	93486	29124.077278782613	27.461883683471
6	93507	29131.139128188601	2.881918057723
6	93527	29136.883568333647	7.318140986644
6	93539	29140.096041446364	13.630424046805
6	93580	29154.381725352256	39.374083845919
6	93598	29160.806140778212	1.370857746154
6	93609	29165.083756946026	1.536318913102
6	93617	29168.364080155826	1.576782693528
6	93643	29174.56776725836	6.019735491461
6	93663	29181.08665194474	5.842692809974
6	93709	29195.386967302112	4.115150607351
6	93714	29196.902272933161	10.397181787038
6	93717	29198.79390053246	9.08960415263
6	93736	29203.974173192865	15.048473439651
6	93739	29205.484914053417	31.651375781374
6	93747	29209.137454798072	28.70503436216
6	93794	29223.316028433107	38.76607072057
6	93824	29233.724847245031	1.247024369054
6	93829	29234.94366372563	17.906332377153
6	93842	29239.704626108893	12.828980514734
6	93857	29244.748681208864	17.636152890857
6	93865	29248.38550811857	4.024914543
6	93890	29255.814408081211	1.243220740184
6	93927	29267.394855106063	13.623165438374
6	93968	29278.726397309452	28.87216712735
6	93973	29280.183887390606	10.169600153809
6	93993	29286.702404307387	11.184417474876
6	93996	29288.593688486143	1.891284178756
6	93999	29290.501164821162	4.600744182207
6	94023	29299.43119945377	1.388156373613
6	94033	29302.477336668409	4.745639950747
6	94043	29305.82277205009	14.324664838552
6	94051	29308.502687954157	1.261968099698
6	94061	29312.041618975996	1.766131963953
6	94091	29320.641395689359	5.496216189607
6	94096	29321.901333727872	24.238788946227
6	94106	29324.790558688713	3.238532510407
6	94117	29329.018696864693	2.872211839643
6	94127	29332.015328692829	21.174355704249
6	94132	29333.436055216564	17.809696733961
6	94189	29350.663288170469	28.38094278639
6	94224	29360.692518715743	12.275393098487
6	94263	29371.904050825347	5.750853613948
6	94276	29376.989018471351	29.783078302047
6	94290	29379.883612886442	27.258487755606
6	94340	29395.707723943143	1.718674847856
6	94358	29401.703019672817	45.66442792289
6	94363	29403.474618978797	3.324624284766
6	94383	29409.325680005363	1.534433765523
6	94386	29410.542060759104	1.216380753741
6	94392	29413.056803517974	20.031804622654
6	94399	29414.407670018262	11.47940896006
6	94419	29421.180673412232	1.738379370235
6	94439	29427.882313763348	1.944304410368
6	94476	29441.882623394205	13.87290513918
6	94481	29443.485377918928	32.821466023142
6	94500	29451.262150088511	12.986921667782
6	94534	29460.241014482452	17.684665227465
6	94546	29466.346106174214	4.763344866018
6	94600	29482.244782971961	18.958786912088
6	94603	29483.768818532114	5.17653861393
6	94642	29495.66273000892	11.220419464117
6	94659	29501.288660301825	7.680403495012
6	94700	29509.174043402819	15.754224327722
6	94741	29520.470019405147	3.734910418866
6	94790	29530.934443956984	34.970497717725
6	94820	29540.365693697517	8.397397329857
6	94843	29548.815143429485	28.650200719196
6	94848	29550.491551020739	11.008859817186
6	94874	29556.842652354387	24.631461623283
6	94916	29569.698736023341	5.010039567398
6	94919	29571.53451124001	11.190982924082
6	94959	29584.890653552113	3.519753313746
6	94971	29587.659836740417	29.460902923572
6	94976	29589.052119976466	7.577871517425
6	95014	29598.051056499032	1.512770672329
6	95022	29601.530069105883	7.043478313004
6	95066	29616.241302802597	1.548496581428
6	95086	29622.675002047416	6.556823323128
6	95150	29641.466198004779	8.1610662968
6	95183	29652.806402165068	22.827384142232
6	95202	29657.415286438537	29.013188112453
6	95253	29672.442879629506	48.97618461286
6	95256	29674.124426864272	1.681547234766
6	95276	29680.327491180225	1.480634831265
6	95330	29696.909384667313	14.58813856035
6	95387	29714.654170871525	6.198075338759
6	95392	29716.219216715357	32.897954814137
6	95400	29719.733956104516	47.409673116459
6	95403	29721.555227207764	4.829204854545
6	95439	29734.305296441167	1.635647969134
6	95451	29737.07289887201	3.80208128695
6	95519	29756.768689794466	1.880280631408
6	95564	29770.971540979856	3.740464899883
6	95573	29775.055779251831	1.325449063629
6	95643	29796.237006244997	1.579093856364
6	95671	29804.895604552704	35.536623743065
6	95701	29813.927198106054	5.417673821984
6	95718	29818.865988282118	4.156902995984
6	95757	29830.667590960492	12.252773153978
6	95793	29842.348502116654	7.117352575393
6	95800	29844.091515997987	1.743013881333
6	95805	29845.817435785573	1.725919787586
6	95834	29856.08404692505	8.715037305585
6	95916	29882.394000553532	9.726068480485
6	95921	29883.958902722603	7.237510587717
6	95938	29888.876417846983	4.532435771714
6	95941	29890.36049170327	1.484073856287
6	95953	29893.691633518046	16.016444173699
6	95988	29905.00030003619	11.103047953106
6	96036	29918.315265085367	1.937348556332
6	96093	29935.176003850816	6.291505419923
6	96096	29937.056891885219	4.793333216617
6	96101	29938.929184123693	5.256504236103
6	96104	29940.901264648518	7.266863804207
6	96107	29942.728956348082	22.971547631535
6	96115	29945.933847837714	11.429752304327
6	96118	29947.348296909226	2.841788035778
6	96121	29948.978765746584	9.228180135706
6	96124	29950.35621506237	4.310204374888
6	96132	29954.089728727755	9.662090696233
6	96135	29955.781181461741	18.43598837136
6	96146	29960.355537737165	18.059728795738
6	96149	29961.817963227075	6.266061366613
6	96237	29987.460198476729	24.494025755066
6	96262	29995.219970267271	3.195582022479

