version 2
run Third_exit_5-5-20191114-11:42:55-9011
attr configname Third_exit_5
attr datetime 20191114-11:42:55
attr experiment Third_exit_5
attr inifile omnetpp.ini
attr iterationvars ""
attr iterationvarsf ""
attr measurement ""
attr network ResponseTimeNetwork
attr processid 9011
attr repetition 5
attr replication #5
attr resultdir results
attr runnumber 5
attr seedset 5
param **.Source.interArrivalTime exponential(6s)
param **.jobPriority bernoulli(0.8)
param **.PS.serviceTimeU1 "uniform(1.2s, 2.0s)"
param **.PS.serviceTimeU2 "uniform(2.4s, 2.8s)"
param **.SS1.serviceTime exponential(1.4s)
param **.SS2.serviceTime exponential(2s)
param **.PS.exitProbability bernoulli(0.5)

vector 0 ResponseTimeNetwork.sink lifeTimeU1:vector ETV
attr interpolationmode none
attr title "lifetime of arrived jobs U1, vector"
attr unit s
vector 1 ResponseTimeNetwork.sink totalServiceTimeU1:vector ETV
attr interpolationmode none
attr title "the total time spent  by arrived jobs U1, vector"
attr unit s
vector 2 ResponseTimeNetwork.sink lifeTime:vector ETV
attr interpolationmode none
attr title "lifetime of arrived jobs, vector"
attr unit s
vector 3 ResponseTimeNetwork.sink totalServiceTime:vector ETV
attr interpolationmode none
attr title "the total time spent  by arrived jobs, vector"
attr unit s
vector 4 ResponseTimeNetwork.QueueU1 queueLength:vector ETV
attr interpolationmode sample-hold
attr title "queue length, vector"
vector 5 ResponseTimeNetwork.QueueU2 queueLength:vector ETV
attr interpolationmode sample-hold
attr title "queue length, vector"
vector 6 ResponseTimeNetwork.sink lifeTimeU2:vector ETV
attr interpolationmode none
attr title "lifetime of arrived jobs U2, vector"
attr unit s
vector 7 ResponseTimeNetwork.sink totalServiceTimeU2:vector ETV
attr interpolationmode none
attr title "the total time spent  by arrived jobs U2, vector"
attr unit s
vector 8 ResponseTimeNetwork.SS1 queueLength:vector ETV
attr interpolationmode sample-hold
attr title "queue length, vector"
vector 9 ResponseTimeNetwork.SS2 queueLength:vector ETV
attr interpolationmode sample-hold
attr title "queue length, vector"
0	16650	10000.696249815546	2.627362079686
0	16659	10002.61340224535	8.007912627892
0	16664	10004.356640128948	1.970348132713
0	16667	10006.22169015982	2.645298401991
0	16680	10015.110774869777	5.373285713835
0	16697	10045.694317378191	6.086782093752
0	16724	10068.162977139554	1.703211977147
0	16727	10070.044542156993	1.985584665226
0	16747	10079.433720638802	2.022456356611
0	16775	10091.955086632843	5.674871125979
0	16785	10102.276309621172	4.707883195489
0	16809	10119.856049033204	1.977528620139
0	16826	10124.684716113421	11.234251753266
0	16850	10132.032183936189	3.421170845724
0	16868	10138.468508564259	18.759005304236
0	16871	10140.055373534511	11.354817362187
0	16874	10141.854498346287	19.982300584419
0	16892	10148.324402466554	25.140252550413
0	16910	10154.105781090025	11.247441941579
0	16920	10158.685311946723	8.539092792534
0	16925	10167.801762899391	1.47687732596
0	16968	10182.05020698132	4.865508821376
0	16973	10183.96144510461	11.968198395143
0	16976	10185.905044059176	10.666215660422
0	16999	10194.128350956645	23.972671078427
0	17002	10195.378401197586	13.031901320292
0	17005	10196.789043953921	20.104573549884
0	17029	10210.498433499707	3.360530462672
0	17034	10212.470799735298	7.800202533774
0	17057	10220.207400505354	10.299580798664
0	17060	10221.855473343951	20.727820931488
0	17070	10230.87473616869	1.682596039958
0	17075	10233.941998208834	6.447204853748
0	17100	10260.74040271787	12.227861730972
0	17129	10279.544436755143	12.988722839734
0	17134	10281.420572136454	5.36400186359
0	17157	10289.99515658667	3.460419559734
0	17176	10295.198396289477	3.82878776403
0	17189	10300.112018010522	18.757225025329
0	17202	10305.101462711524	12.441046902903
0	17253	10318.739164669755	12.00081676649
0	17273	10324.724610978308	36.163294815807
0	17278	10326.431446734759	5.652986171532
0	17288	10329.520679556708	32.271486253273
0	17291	10331.499947348739	5.224701907851
0	17302	10335.669626307617	29.905738605818
0	17327	10347.911422987685	8.1537498398
0	17330	10349.422060523399	36.565522310666
0	17345	10355.397447975587	1.564861228131
0	17350	10358.225359086305	8.400978904962
0	17367	10364.434096887319	5.106538255728
0	17377	10367.930897682869	6.326412150243
0	17390	10375.402028601789	13.26533089062
0	17411	10383.3319456798	5.301186023466
0	17416	10385.248137445093	4.010665970098
0	17471	10402.172385322766	13.728204128926
0	17481	10405.247780574763	21.636369200679
0	17484	10407.122310587482	6.42476411097
0	17497	10418.729983011556	1.499085944705
0	17500	10420.014654224475	1.720512711171
0	17512	10425.993158363332	1.374087307416
0	17515	10427.36928996366	4.984587685569
0	17520	10431.773072087994	1.23673415482
0	17530	10440.494674393073	1.898920151405
0	17555	10459.301491306142	4.369004855418
0	17577	10489.043778915145	1.76116890274
0	17587	10491.921283986979	1.98835642804
0	17597	10498.782473027397	14.719721183425
0	17602	10500.703753083821	2.898582643742
0	17605	10501.942253656935	1.778126227187
0	17610	10508.572245911951	1.726791048609
0	17630	10524.27046324653	6.791479491056
0	17649	10538.891018576731	2.363621817298
0	17659	10542.097786271569	6.28065978568
0	17664	10544.05997674111	10.949669611226
0	17667	10546.032027714697	4.79357635767
0	17672	10547.790363354233	4.513760421282
0	17675	10549.591618645747	3.282633689462
0	17680	10556.516608435562	1.328703926317
0	17685	10563.522656692377	1.656364879571
0	17702	10588.461812782752	2.064304207541
0	17720	10595.072062473638	11.69055363437
0	17725	10602.951470245832	1.468240548857
0	17764	10616.350989004325	9.343637422898
0	17767	10617.650847043756	11.856581327319
0	17779	10621.031768188049	17.667482250968
0	17787	10623.977838992496	3.326058878027
0	17790	10625.782783955504	6.416424679278
0	17795	10627.921947238498	1.700041634962
0	17800	10643.107399998365	1.436999893934
0	17812	10650.279732519073	3.428995976359
0	17815	10652.179684287367	2.579838340216
0	17820	10656.697581459121	1.26749073565
0	17825	10659.663385397498	1.86772662811
0	17835	10675.851382618585	4.923041441065
0	17850	10694.508742941578	7.338067054184
0	17862	10700.056381386852	3.21202564713
0	17877	10705.738275719582	6.269410347998
0	17886	10707.131777190379	2.071234571094
0	17894	10710.482220875434	13.879437801243
0	17902	10713.825988867282	7.303948460066
0	17937	10725.740185072794	18.905311342788
0	17952	10734.016544685609	11.881351926612
0	17960	10739.363758045485	12.644294475212
0	17969	10756.476581651218	1.846351906843
0	17972	10757.95799900914	1.834818868965
0	17992	10767.410155242776	3.78461028205
0	17995	10768.765602394847	12.437606311616
0	18000	10771.260403525655	8.068982239543
0	18022	10782.650641442381	7.960999668968
0	18030	10787.662878452655	1.617279926129
0	18037	10795.135412517462	1.47076654695
0	18040	10796.708500052329	33.22955190215
0	18050	10804.591420145777	3.438235457546
0	18062	10809.656680798284	3.841263425972
0	18075	10821.254470806069	15.466499775582
0	18080	10824.291963335645	1.429883455299
0	18087	10829.051143946883	1.689192163385
0	18090	10830.964874938142	1.986005873503
0	18095	10834.277491928389	1.209206902236
0	18105	10838.32466061188	1.417950208485
0	18136	10851.597808164903	3.1679952145
0	18141	10853.5244274726	7.435228587873
0	18146	10855.290956457691	5.885093882047
0	18167	10862.345947313296	19.410034305689
0	18175	10864.961681575502	10.340666520401
0	18182	10867.628914731899	9.908327889567
0	18187	10869.489680363023	16.529290596126
0	18216	10881.439478072295	12.13460395531
0	18219	10882.869621908622	3.194588325434
0	18232	10887.430314763406	13.17228158098
0	18235	10889.32332156557	8.909428275565
0	18250	10906.369396958308	4.619619875647
0	18255	10910.28784438278	7.084334376269
0	18284	10921.551224924231	10.08596884885
0	18287	10923.462279315086	8.944925486915
0	18295	10930.118639532489	1.416186625324
0	18305	10937.135520688371	4.459095031673
0	18310	10939.63903182352	1.983982224762
0	18354	10959.961354137771	14.569151878446
0	18357	10961.675632055849	16.144201918359
0	18419	10982.621104176084	38.227168161895
0	18426	10984.019476024921	13.451538195462
0	18429	10985.3283052047	2.392482264075
0	18450	10993.502065402384	10.436373269838
0	18455	11000.118518361098	1.813112559728
0	18460	11003.810464789926	1.514816190675
0	18465	11011.81746896688	1.846732108109
0	18480	11024.039678605864	3.663751125994
0	18519	11039.939854766431	12.402816104504
0	18526	11041.778460295687	9.547982499321
0	18548	11048.006356330777	7.417489885172
0	18558	11051.922962409632	9.36226319123
0	18576	11057.483049044573	2.392101570486
0	18590	11060.390906849878	11.878567947231
0	18597	11061.630638448523	3.366663446636
0	18602	11063.034069053458	21.266207324087
0	18610	11065.761733012276	5.109884855837
0	18628	11071.803076574767	11.017752888446
0	18638	11074.732713953593	22.351524320285
0	18645	11076.679689557479	4.433831353554
0	18650	11078.111925416441	16.198818599545
0	18666	11083.660056951457	8.911900364135
0	18703	11095.177596435138	4.787878692066
0	18706	11097.084080201575	20.96411536182
0	18721	11101.76211793665	12.330843270771
0	18729	11104.720214583726	3.428169327172
0	18742	11109.442191733607	31.863748010836
0	18755	11115.04545896846	2.55749473494
0	18771	11119.387927628364	3.127927373676
0	18774	11121.35248507956	4.268053096201
0	18786	11124.680638547483	6.012321890883
0	18789	11125.939505645874	17.166116014137
0	18800	11131.29523471336	6.714342104393
0	18812	11136.43430146341	2.914190624542
0	18836	11143.075429909384	3.401870291447
0	18863	11152.046627997128	18.770114573835
0	18927	11171.384075417821	28.842700740189
0	18930	11172.610431218599	27.63534306586
0	18941	11176.888182604951	8.190762099645
0	18946	11178.346083936733	28.644748297617
0	18959	11182.944579294775	43.695726252503
0	18986	11191.076402294528	6.093251690627
0	19008	11197.834583052513	5.321998214089
0	19013	11199.3883367746	9.35987275121
0	19018	11201.098208635566	4.764175676807
0	19021	11202.715617572223	39.784027601211
0	19027	11205.331816325229	5.862109614873
0	19050	11218.10867103803	26.934318853683
0	19087	11243.352281659138	1.229916430451
0	19090	11244.727378716175	13.298351704795
0	19095	11251.41953205119	1.817301071063
0	19107	11257.334671233648	2.508928188437
0	19115	11260.729017837026	2.340296849365
0	19125	11269.171017673	15.355242628125
0	19132	11272.550043731976	1.379859077372
0	19140	11276.535268174163	5.354525367241
0	19150	11284.137509358961	3.740367085997
0	19160	11303.292561085825	4.755058358711
0	19167	11313.430797364286	1.313781723194
0	19175	11317.600093687073	4.757417689731
0	19200	11346.221862854829	18.660485903833
0	19220	11353.344335168133	6.830819356182
0	19230	11364.615230761137	1.79453871157
0	19240	11369.017638187888	3.099917084733
0	19262	11375.666426247147	6.026387556266
0	19341	11399.611947413882	15.727838745656
0	19346	11401.17226203007	31.868933390082
0	19359	11406.435642209997	3.326598829228
0	19396	11418.549691008191	3.556290370004
0	19406	11421.405932618651	11.172463036198
0	19416	11424.529931825187	14.435718466342
0	19419	11425.851353532981	5.572457953162
0	19429	11429.168759131033	49.158505779957
0	19432	11430.938004260112	15.377187781469
0	19440	11434.662362606425	2.577957840581
0	19445	11448.616951972734	1.567698279396
0	19467	11465.85827212994	6.537596359703
0	19472	11467.603522960553	5.180706151189
0	19477	11469.178805047544	2.113613354163
0	19495	11480.777164673671	11.945422906117
0	19510	11491.009667719585	3.306572341432
0	19527	11500.885497966515	6.31884060727
0	19535	11506.648889968201	5.831035343616
0	19540	11530.179273577712	1.592945152149
0	19545	11546.580857406957	1.536185430363
0	19555	11558.094986409602	4.519776735802
0	19579	11565.922095676436	3.883593395581
0	19602	11573.996245229541	13.185850976729
0	19610	11577.912018763204	18.557722578762
0	19615	11582.60052347941	1.97961464189
0	19627	11594.761401842209	2.68036926234
0	19635	11598.055026033345	6.506709577107
0	19699	11646.35563193466	11.629898231773
0	19702	11647.767897884915	24.261950909155
0	19716	11652.256970966463	11.299684551046
0	19719	11653.484516375368	2.320373067931
0	19732	11660.9701743148	1.458437493443
0	19737	11662.600347315493	10.559031155592
0	19755	11677.311627563278	16.08248477258
0	19760	11682.855566785739	1.566476606391
0	19765	11688.273836859813	1.426113387942
0	19770	11690.782309486623	1.87087032143
0	19782	11700.950243620687	6.493563404709
0	19800	11708.827501271323	8.757598256523
0	19812	11714.563555710775	2.997944839661
0	19815	11716.098719839019	1.765520323902
0	19820	11718.581534943268	1.785554610565
0	19842	11734.233525846402	1.663145188136
0	19852	11737.710303325641	15.149619823012
0	19855	11739.685320025186	4.507518276049
0	19860	11747.463456515651	1.672469624318
0	19877	11766.919125082075	1.612704107165
0	19887	11769.879715448908	9.187860181897
0	19909	11795.042736448728	5.444530909273
0	19917	11798.492606381522	3.943436358247
0	19920	11800.415325225899	8.5244307125
0	19925	11809.036414174757	1.863455193304
0	19942	11851.132586332048	8.629343204541
0	19947	11852.364168338488	2.65735460594
0	19955	11855.507838570547	3.610761449555
0	19975	11866.980202414226	6.623642414202
0	20000	11886.677693304807	11.818657093336
0	20005	11889.763230217871	14.188943567017
0	20010	11895.40299618879	1.990281573683
0	20017	11896.772074903672	1.359342274815
0	20020	11898.590593924311	1.912073031079
0	20027	11926.327083944852	1.707822643965
0	20042	11932.152413078362	6.620777558601
0	20057	11937.360044469773	1.669273729995
0	20062	11939.094774003043	6.993483652206
0	20072	11943.613948993481	1.483914899081
0	20075	11945.101598141625	7.668701756149
0	20082	11950.759384521327	1.715610381588
0	20102	11963.505295110961	13.628559373788
0	20115	11975.12962283854	3.417129030124
0	20125	11984.218402643173	3.574238551581
0	20156	11995.435919613471	2.461840349087
0	20159	11997.128613914443	5.444024661555
0	20172	12002.255034888617	2.760493855865
0	20192	12009.304477856912	1.823263695157
0	20205	12015.364454144415	3.102920413494
0	20222	12019.782080967622	4.405610281788
0	20230	12023.483527158471	3.367646392711
0	20237	12026.348226402539	1.465695973113
0	20242	12027.944931791189	9.701944231837
0	20269	12040.18057567517	13.646977271826
0	20317	12057.480223836929	1.824231593311
0	20324	12059.461400666081	2.153729506781
0	20339	12064.421001881168	35.484525471345
0	20342	12066.197955336229	8.058658103126
0	20345	12067.506058655486	19.060072291023
0	20357	12090.791082387738	1.853582219221
0	20362	12092.585199655913	5.625097131474
0	20377	12097.607162781008	6.631688143478
0	20395	12109.48367046934	15.589629147335
0	20412	12126.585033693823	1.501218068227
0	20417	12128.331608620944	8.561267788003
0	20430	12136.561196311985	9.811318391375
0	20435	12140.953515954898	1.808630545624
0	20445	12147.412539733446	5.986936532233
0	20462	12153.609482145157	3.419816791989
0	20465	12154.811767993156	5.360865293815
0	20470	12156.433910849115	6.889939257132
0	20490	12165.228572918931	6.900178577348
0	20502	12171.303194960886	1.802530115351
0	20505	12173.060742182405	4.478147615306
0	20517	12177.356064285978	4.232404421945
0	20520	12178.579219500988	1.768146657156
0	20542	12195.606851135538	5.70077715846
0	20545	12197.535742595577	8.425619034283
0	20550	12205.076376711681	1.203299948387
0	20562	12214.746864335669	1.729133266769
0	20582	12225.312991300198	18.564044356429
0	20597	12230.562446492293	7.897796259411
0	20600	12231.937121839018	9.876609009129
0	20610	12237.820036741202	1.845568236522
0	20615	12239.886388508994	6.82638373399
0	20620	12247.449510693307	1.709189941734
0	20635	12260.57424679115	5.333052156874
0	20655	12273.850013381449	1.960176751949
0	20665	12279.615805218472	9.647946969639
0	20670	12283.777389078289	1.599877444468
0	20685	12308.770908211393	6.543698090733
0	20690	12315.519692586843	1.970883595943
0	20695	12328.178733892255	1.443908828311
0	20707	12335.34564811408	3.219984845714
0	20710	12337.000792413647	2.425234601815
0	20720	12344.097934409359	4.177572962091
0	20725	12362.663141819455	1.818677288108
0	20757	12380.18174720606	9.406617935829
0	20760	12381.871605761295	2.620658591483
0	20774	12397.970763109026	3.09391269325
0	20777	12399.178848268983	4.45746369753
0	20809	12416.954640963741	9.963787395478
0	20812	12418.264216247827	6.088179008764
0	20835	12427.400827444577	5.243137690426
0	20860	12451.526039799064	6.880173476467
0	20877	12462.05871402248	5.426721669419
0	20880	12463.262552073404	4.380814888887
0	20885	12469.113525166141	1.894698345661
0	20892	12473.26676119195	1.887214881368
0	20895	12474.635434517094	3.148285684755
0	20917	12482.794797261405	3.898549002484
0	20922	12484.774678950544	8.305213729851
0	20935	12490.600653404187	5.086341991683
0	20962	12506.541754715654	1.483381371014
0	20972	12509.269554539907	12.631958023287
0	20982	12512.63183061904	7.047568320449
0	20985	12514.05926877516	7.095908540274
0	21005	12527.658743587965	5.339351418566
0	21025	12534.48172177732	15.193760435133
0	21030	12538.007868517218	1.934933934174
0	21057	12561.726190936633	2.3365329393
0	21074	12566.932775573611	10.943965016138
0	21077	12568.223314017236	7.271310716084
0	21092	12573.060000228874	3.383888659553
0	21109	12579.974677186994	10.517945898331
0	21112	12581.72463614752	2.882202179199
0	21120	12586.790979286107	1.469508967921
0	21127	12592.362342141763	1.571970028989
0	21137	12595.304463648532	15.503102894838
0	21164	12603.028953768793	7.116590984598
0	21177	12607.34953580435	4.254087630196
0	21188	12609.208787519593	11.477625425658
0	21191	12611.115716042664	3.539159300625
0	21194	12612.70645809352	11.913244935179
0	21205	12617.388819762241	22.862973080941
0	21229	12623.831691468631	6.336533256434
0	21239	12627.268286110398	9.099424306171
0	21245	12629.809091048625	9.366128108653
0	21250	12632.034373563696	13.705849815729
0	21260	12640.707087444755	4.150100045221
0	21297	12662.650441406536	16.875723615499
0	21312	12673.541487321922	2.224297199113
0	21315	12674.796721995169	5.01475545466
0	21324	12686.131535036666	1.325545893237
0	21350	12695.533011830216	2.216117163277
0	21382	12713.083903593523	2.752085202297
0	21418	12723.202957616513	6.16209811454
0	21430	12725.758445339044	11.630795435263
0	21440	12729.310561513295	13.482612300547
0	21443	12731.020291960379	15.12073719159
0	21451	12734.025175449578	7.738624683078
0	21461	12737.032831187873	25.539897476024
0	21467	12739.749123945787	32.70349096725
0	21477	12742.449725220866	2.602215111122
0	21487	12745.843199610478	3.171619393682
0	21515	12759.664461233536	25.31541937236
0	21532	12764.057504097098	4.387263741903
0	21567	12778.79864488643	18.599007617247
0	21575	12781.372531519722	2.054601498161
0	21582	12787.879074457829	1.518588981964
0	21590	12811.909563079567	1.497650839947
0	21600	12821.188982220552	2.371128466283
0	21607	12823.368136151577	1.773759098351
0	21625	12830.45102194422	2.274652090001
0	21635	12857.180425458291	1.294534145854
0	21640	12861.535092774054	1.955049074069
0	21652	12870.282597671125	3.956003217833
0	21674	12877.881585324474	8.773144623135
0	21696	12884.830640820706	5.868945929734
0	21715	12889.786482987472	4.84549519584
0	21731	12896.539387561859	12.719062605344
0	21736	12898.017508947769	11.677131075731
0	21742	12900.925955439278	13.230756671842
0	21750	12903.987491964282	29.854199212521
0	21760	12909.93439264467	3.477657699557
0	21765	12913.837463032112	1.951889853366
0	21780	12928.848464443914	3.412584293283
0	21785	12944.369800562819	1.320606672764
0	21790	12948.781530296238	1.662184551731
0	21829	12965.600982677042	11.083770497661
0	21832	12967.232121109999	3.833757361217
0	21840	12971.445908949044	13.474616908444
0	21845	12987.812686461853	1.413981833309
0	21850	12989.150086010955	1.307785324007
0	21855	12992.640258350186	1.827998537757
0	21860	12999.955235578907	1.543357241526
0	21877	13011.515852918869	2.298565113641
0	21880	13013.08642783167	5.281759356148
0	21892	13024.733921733868	3.906340252574
0	21905	13034.328592346156	2.848659898966
0	21922	13041.306892229039	1.6418316219
0	21964	13055.675218451923	20.383019719173
0	21967	13056.954387538849	33.562660483501
0	21972	13058.912071536823	5.327338710453
0	21975	13060.832451689212	15.626264463917
0	21987	13073.453831790408	5.941223804429
0	21997	13076.378892389147	1.58571209187
0	22002	13078.153720448001	2.144335285548
0	22057	13095.412084984528	14.79982999177
0	22065	13099.152125197786	1.781405198015
0	22110	13121.087452794411	25.755036298656
0	22115	13125.189094142719	11.226873221925
0	22137	13134.262864619413	8.73177743223
0	22145	13137.358824418267	8.021783539109
0	22155	13153.157784083757	3.198786185095
0	22167	13171.955772027808	2.004170061158
0	22170	13173.845690684641	5.607870522886
0	22175	13176.409072788357	1.788402711786
0	22195	13202.597458492756	9.241278009751
0	22200	13207.842581433518	1.843684203364
0	22210	13215.553576953357	4.845437373204
0	22215	13230.386417438767	1.856506154686
0	22225	13251.392218647256	1.283462026156
0	22235	13258.74073976515	4.87147875066
0	22260	13268.265099214345	5.77462876849
0	22305	13306.184338140198	1.901090344973
0	22322	13313.983378800181	4.937455494515
0	22325	13315.851930788149	6.757676506117
0	22354	13332.377261148543	1.864725382626
0	22360	13335.099134670162	2.892991152536
0	22365	13337.95645950783	10.0438458096
0	22402	13365.398073870446	5.00669968112
0	22410	13368.440980912502	2.346678961818
0	22415	13374.8902203354	1.535068087094
0	22446	13389.615691413685	3.565544245981
0	22449	13391.022697190709	10.049219601117
0	22452	13392.560036078795	7.051120237491
0	22460	13397.371434769235	8.687615849407
0	22467	13405.436679985637	1.279373005964
0	22475	13408.670755166224	3.946910838777
0	22487	13424.777576441045	1.811659442017
0	22505	13434.840743779877	3.043266442903
0	22510	13440.64258733871	1.982449503988
0	22543	13450.571624679843	1.328024503614
0	22546	13452.266169025356	6.064719259575
0	22556	13455.518347436169	3.221650697442
0	22579	13464.792102478484	1.63239413593
0	22582	13466.190693290385	1.978358867186
0	22607	13482.789372263507	8.860636139489
0	22612	13484.410921832205	10.888078517087
0	22617	13485.800586771623	2.326427764396
0	22639	13493.474372921217	7.677544904344
0	22652	13499.285939094638	6.75858424673
0	22657	13501.090564854284	8.045379881456
0	22660	13503.086582270664	2.044268442628
0	22665	13505.553240781967	1.328634864837
0	22670	13507.992475978409	1.442680978216
0	22677	13523.37973707946	1.5524084609
0	22680	13524.970192844178	1.912209321399
0	22692	13534.30970736008	7.209193283116
0	22705	13540.000497841586	1.541609916463
0	22724	13545.285679200655	1.907526806754
0	22747	13553.250304475417	13.014800455793
0	22757	13556.819671131925	22.628013454063
0	22780	13566.15360872325	5.268030614645
0	22785	13569.742704926481	1.413913834654
0	22802	13581.150498577074	5.044464970566
0	22814	13583.621128236369	1.437598545903
0	22817	13584.821536110953	1.913889465168
0	22822	13586.142548111134	2.846262879483
0	22882	13613.806716221267	26.687589748317
0	22892	13617.376837772416	4.082448750079
0	22912	13634.955411849382	1.66704650484
0	22931	13642.866186208737	2.629800450022
0	22934	13644.532875919987	3.344319686151
0	22947	13649.05371970338	2.136902810542
0	22955	13652.163596653465	2.066849421254
0	22972	13659.853903929594	3.751517388945
0	22985	13679.380462431641	1.644062925875
0	23007	13689.674593128488	2.944954577589
0	23026	13699.268688444323	2.520142500607
0	23036	13702.663408705308	4.248842530403
0	23039	13704.530119268685	22.131800625195
0	23042	13706.035152462772	5.24014265808
0	23045	13707.92768990872	20.928575733442
0	23081	13721.92119568198	5.475134302822
0	23093	13725.834375506295	6.854530393984
0	23107	13729.600256820983	13.402321004448
0	23118	13734.465288992813	7.304138761789
0	23128	13737.519348252965	8.76667341705
0	23131	13738.761438163211	25.231284345499
0	23143	13741.297520756004	27.247124855248
0	23162	13745.482389410798	19.277519016103
0	23170	13749.274890951094	5.819576827617
0	23173	13750.501427318928	8.871992081766
0	23191	13756.704777117659	16.585436911769
0	23215	13773.089634415444	1.72772678826
0	23220	13778.833948835107	1.691783826984
0	23227	13782.683272856545	1.445604220405
0	23235	13786.122412739642	1.328532043844
0	23240	13788.021102608014	6.514244699542
0	23245	13796.526297906777	1.232083796524
0	23267	13807.767853377713	5.893214594047
0	23302	13826.559547800052	1.205491394177
0	23305	13827.784730165119	4.912962498303
0	23310	13829.809348333258	1.443390510045
0	23345	13846.354715115424	11.336631796225
0	23357	13850.009840690282	2.013063440582
0	23362	13851.614842916404	19.152873358161
0	23370	13861.606891201042	1.50237753801
0	23375	13884.578565058505	1.783870327659
0	23385	13898.740564452125	4.507116698012
0	23402	13906.804946168315	2.377918100028
0	23405	13908.778011491325	7.061827077478
0	23410	13914.259546411397	1.404566381313
0	23415	13920.332311206644	1.583261046559
0	23425	13926.755689009306	4.931017649248
0	23430	13928.722144093069	1.422376753017
0	23440	13933.888240435778	3.143763922801
0	23456	13941.051262039078	1.77448677253
0	23464	13944.238934393546	6.830560965791
0	23469	13945.496175001135	4.482387973292
0	23472	13946.725678320734	3.249245172015
0	23485	13951.237270001265	2.23733709436
0	23510	13961.388733720813	21.764753590455
0	23515	13964.454321984878	16.214350076194
0	23532	13971.953953328765	1.890475689764
0	23549	13976.719032324141	9.461014067693
0	23552	13977.95905042555	2.487008050113
0	23567	13982.631825193426	2.801297652416
0	23582	13988.43516364296	15.077029926845
0	23602	13996.428815627259	4.821111452952
0	23607	13998.265601293904	2.89094663055
0	23610	14000.176672249076	2.078368224339
0	23625	14008.952007220694	1.853354266084
0	23650	14027.00286258439	8.051905786355
0	23660	14034.817059147355	5.930729822365
0	23687	14051.915726793069	2.176979315219
0	23690	14053.623050848838	11.438905688749
0	23700	14063.433813769004	3.41593803702
0	23720	14073.16655281178	9.249270475149
0	23725	14094.909741495647	1.312345361523
0	23739	14098.485729496839	2.649734234255
0	23749	14102.260416084627	6.930262851343
0	23763	14105.713115847396	7.93109538716
0	23778	14110.013113412732	9.168189077537
0	23789	14114.350944538699	3.162059333077
0	23803	14117.441148675703	14.131531072022
0	23808	14118.648581022122	2.805142416697
0	23813	14120.533200611831	3.890939114585
0	23828	14125.265283683227	21.878576853563
0	23831	14126.846248668903	9.323750652366
0	23846	14131.992032986419	13.122721369172
0	23865	14139.54249354555	12.196189669485
0	23877	14152.533935061193	1.763803034276
0	23882	14154.273898150868	3.008588831326
0	23902	14162.56968160778	2.18729286461
0	23907	14164.025356847082	5.943850166014
0	23917	14167.211757658083	3.450441670559
0	23950	14187.048819896216	1.565264749154
0	24001	14202.111320057679	7.568122756296
0	24006	14203.685768988151	25.233581046804
0	24021	14208.842320300806	5.679457137376
0	24029	14211.671856701542	21.633188659931
0	24034	14213.11452819312	5.742784316481
0	24039	14214.914934144337	4.253184424655
0	24068	14223.313629514706	32.666060825134
0	24073	14224.586649579909	20.534734121449
0	24076	14226.331811265815	10.364384397568
0	24091	14231.721585296821	8.3565098695
0	24094	14233.109114136342	16.620507823373
0	24102	14235.766864121873	5.1330340532
0	24115	14243.02552511053	20.679909504219
0	24149	14254.354295957157	6.744066272831
0	24154	14256.243487063864	7.692471537694
0	24157	14258.086048542404	4.971905088077
0	24165	14261.867163656843	17.178368850687
0	24177	14274.000752186022	3.622627948937
0	24207	14285.679402071451	3.377197756009
0	24226	14290.589247472798	13.477256960504
0	24234	14293.908672823971	2.013244870294
0	24271	14305.611097495336	20.771933042828
0	24290	14314.940643156376	3.312998336801
0	24297	14317.964917725458	32.251807792682
0	24307	14323.851629930446	1.340458260104
0	24350	14340.262218331789	22.365302675093
0	24367	14352.510581016153	2.702071761651
0	24370	14353.992760052144	2.84267707298
0	24375	14357.286417561219	1.716500176862
0	24385	14360.384114335095	2.292633153901
0	24441	14378.424343228738	2.226881030474
0	24459	14384.900785133641	27.206613438239
0	24473	14387.792004522148	2.710339175094
0	24476	14389.525647774737	13.052182806153
0	24484	14393.182791257303	2.642312055773
0	24504	14398.957453133565	3.676816493308
0	24509	14400.335633092028	4.47645604818
0	24512	14401.699352269647	14.846232351192
0	24520	14405.345331835401	3.118232772574
0	24530	14410.066244174862	1.724737758748
0	24550	14419.556336852159	5.285719061396
0	24555	14424.779719726212	1.422083395347
0	24560	14429.897714012166	1.312232359126
0	24565	14439.929461799761	1.555054368824
0	24575	14452.027797607712	1.493470842391
0	24580	14455.966637649088	1.414808985405
0	24585	14464.618148290664	1.57235247232
0	24600	14478.090556215729	5.583746973803
0	24615	14493.901280099646	1.624326670542
0	24625	14503.043688707726	1.505409876071
0	24630	14522.800001975511	1.390409691259
0	24654	14543.922599304322	7.499828649254
0	24664	14546.642785867345	2.784374194735
0	24674	14549.851619918873	3.299881179831
0	24696	14556.000309453575	8.712608922549
0	24709	14561.292760164707	5.770565252023
0	24712	14562.498750327385	21.55991223939
0	24735	14574.161033759232	9.371682590683
0	24786	14591.579014895534	3.860400694857
0	24789	14593.3656829041	17.239326530437
0	24794	14595.291491209952	19.942569157195
0	24797	14596.747894460572	9.86751528687
0	24815	14614.151853596056	1.924277466536
0	24830	14622.22332035	1.971342145462
0	24865	14640.195014774732	1.494354235381
0	24880	14646.113776027253	17.834879159321
0	24934	14663.135055147536	10.167430573143
0	24937	14664.535259382851	11.319221837032
0	24952	14669.094385050133	22.932613905778
0	24985	14682.558832226645	1.749249979854
0	24990	14697.072680447727	1.445745273679
0	25037	14713.089859163197	9.41276701117
0	25040	14714.361529149855	17.252902820425
0	25057	14718.946420367593	19.107189357252
0	25070	14726.68656336886	11.295548660048
0	25102	14743.712979916854	5.953434760366
0	25146	14756.63876403203	5.074237001331
0	25156	14759.382491596097	12.869609353751
0	25179	14767.728154586309	36.493568681295
0	25184	14769.128856884369	20.451911057636
0	25189	14770.480356694625	9.669347026683
0	25235	14782.295706821471	10.769886574563
0	25238	14784.121237064018	20.476305640539
0	25256	14790.346365817316	2.741203841521
0	25259	14791.988489650056	3.183822014897
0	25309	14807.804759386608	15.161785734727
0	25314	14809.652575581388	6.182930330834
0	25346	14823.400429891487	23.927854404346
0	25349	14825.197499251803	19.695615217465
0	25365	14831.509389972675	12.840442140087
0	25370	14844.508126175704	1.261675606854
0	25375	14853.629531438638	1.85385128241
0	25394	14867.42436620607	7.171390111449
0	25416	14874.18218801315	2.688664771154
0	25431	14879.07111885897	3.731311437552
0	25434	14880.436342631235	13.710099104029
0	25437	14882.167495045207	14.939324124753
0	25452	14896.592064573508	3.311164212475
0	25484	14906.774838912278	2.940513550666
0	25492	14910.003120695963	2.00580131592
0	25502	14914.09436171558	14.952593511117
0	25505	14915.46991016418	11.318027694542
0	25520	14925.309001604431	2.51507149961
0	25527	14926.763225009081	7.894704778315
0	25535	14931.405208456467	8.801953658449
0	25544	14940.112643336207	1.292382740229
0	25552	14943.28505868733	3.671217579903
0	25564	14949.054047612457	1.992643283121
0	25583	14953.475863234682	2.772050350234
0	25596	14957.535271222687	5.780194531649
0	25613	14962.43834201338	4.860268272016
0	25616	14964.307757890953	17.120611758463
0	25621	14965.928210139072	27.067369447328
0	25624	14967.593891931495	16.013954247431
0	25627	14969.513098097017	3.637354614156
0	25649	15004.837458109338	1.694670996442
0	25656	15006.480919972103	9.31379512474
0	25662	15010.170052022341	5.087919199739
0	25667	15012.153244081925	14.084063280065
0	25675	15015.02285088044	1.378312439234
0	25680	15019.013427532351	14.587721684774
0	25700	15053.959169909691	1.999581532386
0	25707	15056.069030110026	1.88226974532
0	25710	15058.028269605758	8.963083677997
0	25717	15070.436862460088	1.960742119513
0	25720	15071.707130620938	1.641691997168
0	25739	15082.116555311006	1.820682070404
0	25742	15083.934203153138	3.466156714692
0	25750	15088.115081966447	11.24239575326
0	25757	15096.490276453456	1.470561360754
0	25767	15099.713820634967	2.855710676326
0	25795	15114.24049683715	19.153324480498
0	25800	15117.376011638779	8.111710936298
0	25805	15119.357883122479	1.420198907703
0	25817	15129.078246903553	1.594967383802
0	25830	15136.61720205628	10.692166200413
0	25857	15153.153764223276	1.321493689716
0	25865	15156.634134078799	1.218273728341
0	25872	15162.854069059375	1.40684811417
0	25887	15167.838502926412	2.785173181719
0	25894	15169.248947882685	1.851630243674
0	25906	15172.515966726127	1.649813204261
0	25968	15194.33115707239	3.392987884826
0	25971	15195.809566982965	33.885119116401
0	25976	15197.110804550852	24.761899968723
0	26013	15208.385383228714	6.639226664878
0	26028	15213.216751351336	2.297445443883
0	26048	15219.627877522202	2.224504982908
0	26073	15228.440973677615	2.466542484683
0	26090	15233.36682494873	12.626049867707
0	26095	15235.297512456344	16.420092891085
0	26112	15240.203487925919	3.975232339223
0	26118	15242.783878456185	15.402196246192
0	26123	15244.307607535402	36.717144375534
0	26134	15248.923998821096	12.515977784924
0	26157	15260.335845783042	4.810586566478
0	26184	15271.006516287306	5.225457970065
0	26217	15288.835603003567	1.255445933715
0	26230	15296.432625682054	12.104849122677
0	26235	15313.274518936434	1.955662974529
0	26247	15324.173512801949	2.167445698937
0	26257	15329.681825546159	9.000584071438
0	26285	15342.267591924985	8.727141478914
0	26295	15355.133651315597	3.282908660372
0	26300	15365.45005523302	1.515931728482
0	26305	15369.94009991331	1.855043019168
0	26310	15376.851894514312	1.433308215812
0	26315	15382.789454385553	1.758104225434
0	26330	15393.379093726197	1.579435986863
0	26350	15419.008318508909	3.996115279085
0	26370	15453.07767319388	1.728989318758
0	26385	15458.752373031165	12.69785008861
0	26395	15462.826841270127	8.569860067134
0	26412	15475.967297686378	2.193385949973
0	26417	15477.265053954835	5.169647790792
0	26445	15495.205827519539	3.162302569961
0	26467	15510.274505533803	8.003560869222
0	26494	15518.590197946284	11.309733496048
0	26505	15528.941180715905	1.662628808431
0	26522	15555.540278748651	1.986885766312
0	26534	15558.655768077676	3.098163841299
0	26544	15561.691036493187	3.417327297838
0	26547	15563.61785524529	16.377900972403
0	26560	15568.408470282187	7.191917503122
0	26582	15577.594135706081	1.394227549247
0	26590	15581.212253092557	3.206295703728
0	26595	15584.50268759271	20.245670839181
0	26605	15591.670921070996	3.333476793274
0	26610	15601.175456797835	1.347857762501
0	26627	15624.124565731701	1.855335846847
0	26630	15625.847336989049	4.924395419284
0	26657	15636.687988548087	4.185607934781
0	26660	15638.042929825107	2.505414596397
0	26665	15639.385072375911	1.335707703605
0	26674	15641.963996883789	10.810407452631
0	26679	15643.300044047395	1.829608785356
0	26692	15648.334475988644	2.414988060582
0	26735	15660.227183905924	16.948653580466
0	26750	15664.892443665797	5.3822017357
0	26753	15666.539783741096	39.993595491927
0	26756	15668.25189734132	11.385773767527
0	26767	15673.000741105462	18.203545230621
0	26800	15693.855533066151	5.302338867388
0	26815	15706.709191519563	1.232292573201
0	26835	15713.189868129747	2.80092814258
0	26842	15716.783909610765	1.391229378246
0	26845	15718.66667239658	2.245140350783
0	26875	15734.814055257517	13.490423578579
0	26887	15738.061899999749	15.164325119501
0	26900	15742.535958470811	13.158900070377
0	26917	15750.53985982651	1.757398512401
0	26939	15758.845938937372	12.191067866966
0	26994	15773.28913247977	10.80153272422
0	26999	15774.7014455244	3.358573377246
0	27002	15776.12452314776	13.565393234115
0	27015	15781.020480730017	16.336456882954
0	27018	15782.722146678907	8.397148101205
0	27021	15784.666283932333	21.561889998422
0	27034	15789.468713273112	29.407247430613
0	27055	15804.111980758206	3.180455573953
0	27060	15812.109893024877	1.581484517828
0	27080	15829.580728282407	6.301784438299
0	27112	15848.078485585214	6.393912586676
0	27117	15849.535249671364	2.056515987106
0	27122	15851.260329347873	1.883554670965
0	27135	15859.787462921571	8.425638688237
0	27140	15867.755582307862	1.594838683866
0	27147	15891.412156155926	1.937699736468
0	27150	15892.72183772627	1.630277385566
0	27155	15900.661034345478	1.495242857188
0	27167	15913.280394664642	1.419855733216
0	27172	15914.840047811021	2.857043764545
0	27175	15916.199040608902	2.538072525731
0	27195	15939.242197808208	4.804574250079
0	27200	15942.225124928664	1.671087699011
0	27220	15957.972381796386	3.918922194655
0	27225	15965.470120927555	1.698073227517
0	27267	15986.047449028921	13.225932854741
0	27272	15988.030352368635	2.671353176729
0	27275	15989.560893169102	2.890492531241
0	27280	15993.597024892452	1.225133118778
0	27285	15996.811983039107	1.57135113813
0	27295	16001.2529119573	4.420613434814
0	27310	16009.123278580167	6.631165922356
0	27315	16017.851208456764	1.438351936452
0	27335	16032.079524384801	2.499251237912
0	27355	16056.101400172597	5.841588515357
0	27360	16058.781959211105	1.874977289885
0	27370	16069.961392343034	4.831064186441
0	27390	16100.726503351017	6.82103069833
0	27407	16109.446046896431	1.405903342552
0	27410	16110.700056826103	6.594713358235
0	27415	16112.35814070313	7.318108372416
0	27432	16133.787165304241	2.520047697896
0	27435	16135.738140422073	4.646659072302
0	27459	16146.816076840495	6.396236365289
0	27464	16148.386777286825	6.81141248796
0	27495	16164.887932205314	22.297276404859
0	27510	16173.744544836341	5.132930153794
0	27522	16179.691290760907	5.077998962719
0	27540	16186.330189715448	5.612142881949
0	27545	16188.504515213478	9.589468290836
0	27555	16193.154966503375	4.242028375214
0	27570	16204.51387585911	7.455578944717
0	27585	16213.13898700469	1.57624005191
0	27612	16230.166850064594	9.574280582982
0	27615	16232.109671532821	2.737532307689
0	27625	16237.47664719173	3.782788358597
0	27671	16252.229405540398	12.027823452842
0	27689	16258.176267353243	19.326137911157
0	27705	16264.653062396038	23.696991393158
0	27710	16272.068048158995	1.275367245078
0	27730	16283.221475519485	3.010548029211
0	27747	16290.632014828274	10.937172374728
0	27795	16303.442459700542	4.871094490084
0	27800	16305.278928629408	6.177105324788
0	27840	16317.543938080134	26.811903757812
0	27843	16318.762881056877	3.889895982321
0	27860	16323.668327675859	35.945790313744
0	27863	16325.062786910596	4.830372156237
0	27869	16328.318804421003	36.900955543059
0	27879	16331.619630903478	15.753796830587
0	27892	16336.199037264201	15.571442743369
0	27900	16346.461118533525	1.680691813864
0	27919	16353.576340638866	1.777507676915
0	27930	16360.002459554589	11.647707167836
0	27935	16362.110247596543	13.669194689189
0	27947	16367.383313002968	1.980235590786
0	27950	16368.814261689754	2.512551471549
0	27984	16379.251097874804	16.782469811631
0	27996	16382.296051031439	2.473003927841
0	28001	16383.620145537978	3.062157686982
0	28009	16386.513517695194	1.861741802504
0	28026	16391.646307812905	2.384983864362
0	28029	16393.259953243	16.671440605503
0	28042	16397.907669028354	1.6187724915
0	28056	16400.495043541392	1.955537089349
0	28100	16413.56941169118	17.181620172434
0	28107	16415.488502197428	7.816003939943
0	28110	16416.847427419475	14.681502138672
0	28159	16433.765429787239	19.839246239633
0	28162	16435.64687913963	29.349674947997
0	28189	16444.001369382817	34.312312725699
0	28198	16445.96058239397	4.296224963253
0	28205	16447.93955863994	42.263293430643
0	28208	16449.369785080481	5.258553277771
0	28213	16451.266661218371	22.933446665591
0	28229	16457.749788690548	8.052695555987
0	28236	16459.741392547454	3.749467341356
0	28244	16463.374241240698	26.000215547228
0	28254	16466.388054834496	44.383492635276
0	28274	16474.302432988367	33.988022536377
0	28279	16475.887716797336	2.02927782868
0	28285	16479.146655921049	15.458552195503
0	28290	16480.898396789491	6.958927283754
0	28329	16495.948397291452	13.488680929596
0	28351	16503.114186019078	18.709185460094
0	28354	16505.103387420625	20.028496953453
0	28365	16509.834521839563	13.470348784685
0	28380	16526.473164456463	14.029365008817
0	28395	16540.79041093676	10.410443814976
0	28400	16542.502263710962	1.375171528012
0	28405	16555.810859261919	1.983286889642
0	28415	16567.787213196748	5.064433474337
0	28429	16575.065329846085	2.85813164981
0	28432	16576.618164445178	3.799952757701
0	28452	16582.595311419012	11.241273458303
0	28461	16584.541996187063	7.728351256428
0	28464	16585.751416495906	1.99683658822
0	28487	16607.950718711714	4.647045398707
0	28490	16609.835057396839	2.961268519542
0	28497	16617.94304741472	1.889856043831
0	28502	16619.395047982223	2.874572196305
0	28507	16620.966753729246	2.133155827163
0	28524	16629.156432458253	1.752003984898
0	28527	16630.665365555005	10.29281708306
0	28540	16635.700546756304	9.792308517038
0	28549	16640.691899545647	1.823772448115
0	28552	16642.461441076144	2.292022559751
0	28587	16662.448373684464	11.068264891785
0	28600	16667.517686762817	5.733445765613
0	28605	16671.732940216458	1.857170714997
0	28625	16689.367381937404	8.804255956865
0	28630	16696.026816687213	1.205633208528
0	28654	16711.158510934522	6.563660747185
0	28657	16712.677598578071	7.935072359439
0	28660	16714.388549380151	8.167749971118
0	28679	16720.654322123126	3.518970016805
0	28682	16722.504935189866	6.011661463604
0	28702	16728.465602943084	5.184667551206
0	28712	16731.477633665844	2.890475921278
0	28720	16734.682835061259	1.61589360757
0	28725	16736.450386592935	12.508583215609
0	28732	16738.322199213832	1.699943602458
0	28735	16739.759429151333	2.17801442325
0	28740	16741.152846139924	1.202759598941
0	28760	16758.587647628407	4.679196035484
0	28777	16771.791064679876	1.338120609522
0	28792	16779.19985433705	1.888959899731
0	28805	16784.671225623785	10.705048458645
0	28810	16786.671329124384	6.636668767695
0	28825	16801.181766151964	2.316592992947
0	28835	16804.963338200476	11.309317213017
0	28845	16812.133035119694	3.851074195543
0	28850	16816.94550825322	1.967850604281
0	28855	16818.975321868767	1.403053784929
0	28865	16825.46313318374	3.741117016381
0	28870	16835.251685887075	1.624900078028
0	28875	16846.058642472511	1.408145896345
0	28880	16851.357157498608	1.970721245185
0	28895	16866.283442530127	8.446357914846
0	28900	16875.694877990978	1.747837624699
0	28905	16886.398110383571	1.851195601746
0	28935	16906.267324699979	1.71362532907
0	28940	16908.744879229226	1.293987254426
0	28950	16913.290328538709	12.172742067279
0	28967	16924.606840065378	1.538207416423
0	28970	16926.398238068703	10.593403200535
0	28985	16941.155229308143	3.52282374862
0	29002	16959.023963390157	2.093113866809
0	29005	16960.766270007059	6.394666607854
0	29027	16975.583987273203	6.992396828014
0	29052	16992.411226253619	1.680921436846
0	29071	16997.694022085552	6.409024267389
0	29081	17000.258617914688	2.406835301859
0	29086	17002.003867903944	7.672877514351
0	29112	17012.328919938797	15.114435938001
0	29145	17041.764671652518	1.440843252651
0	29160	17049.667555848685	2.839437133625
0	29175	17059.80009772189	16.698141866116
0	29185	17070.596337309822	6.100734462128
0	29190	17081.807474905817	1.886294848658
0	29195	17087.575760341063	1.555034727603
0	29210	17097.656891025319	6.650194720387
0	29215	17100.950777094059	1.724723113514
0	29222	17112.177098545404	1.226559944078
0	29230	17116.294637857581	4.784917119139
0	29235	17123.484127988683	1.212221648544
0	29245	17139.896122665065	1.871542732231
0	29267	17146.502896026463	4.008656746524
0	29279	17150.264007261523	10.314675091208
0	29301	17157.475057240703	16.89227536631
0	29306	17159.376657760643	2.892637329421
0	29326	17165.922136677929	17.571219131685
0	29331	17167.220543539838	4.75996356515
0	29339	17170.12576365018	4.329423567219
0	29349	17173.977907639684	5.744652957549
0	29372	17181.666042468837	1.984579301625
0	29385	17185.889134465984	1.808401400059
0	29397	17191.688391832054	34.028784429933
0	29400	17193.071265019082	35.803430094806
0	29412	17198.075149726154	1.571777285822
0	29415	17199.87155231967	5.674215908194
0	29420	17201.65946094154	1.480015984364
0	29425	17209.903769468305	1.927259115316
0	29435	17217.831872698169	4.854037728614
0	29442	17221.444619112463	1.557232258283
0	29478	17231.579226940498	10.666128995639
0	29492	17235.092617648281	13.093777646405
0	29514	17242.465160651318	7.560701022704
0	29517	17244.000979873351	11.428473517217
0	29520	17245.923780750296	12.386603801686
0	29528	17249.195412693358	7.5262757214
0	29531	17250.806677930056	8.80847556614
0	29544	17255.466604813373	32.384389952878
0	29562	17262.022826198115	7.559519242673
0	29582	17269.423643426223	11.094514897433
0	29590	17289.150524830831	1.672006782517
0	29595	17294.036365105419	1.377376076579
0	29602	17296.61356901766	1.2463973796
0	29605	17298.065175876927	1.770607753012
0	29620	17312.206313888402	4.546969672292
0	29645	17320.775191967343	2.459610923841
0	29652	17323.820802374444	1.909596695565
0	29682	17333.89916700815	7.758595146491
0	29694	17337.184117745618	3.152283906637
0	29712	17343.936703504074	16.433081257
0	29715	17345.445742824871	30.470794485028
0	29730	17357.512685013375	1.375913611986
0	29747	17363.338181580534	4.278495147033
0	29764	17368.585292302562	18.060986708097
0	29775	17373.189000406979	14.238479351945
0	29780	17384.128905450161	1.347899835929
0	29785	17396.365577865298	1.988383623585
0	29800	17404.711741396125	6.060619451681
0	29815	17428.484376049663	1.30736147929
0	29820	17431.619413476867	9.826977801365
0	29825	17436.571801130564	1.918575857952
0	29844	17454.464018850991	1.329504582845
0	29847	17455.780235902251	1.880416015936
0	29850	17456.983236048774	2.718343780412
0	29855	17464.135038319723	1.266320938244
0	29877	17478.608215645701	7.749155916126
0	29880	17480.166637513973	3.965461090402
0	29892	17483.874786890473	3.282882629879
0	29895	17485.237057162251	4.739372052811
0	29900	17493.273362012513	1.588763087429
0	29905	17504.232298179909	1.357419333048
0	29917	17520.930523384265	6.406329555109
0	29939	17528.53783839764	3.079145575248
0	29946	17530.061044478136	10.14549502584
0	29959	17535.033325545954	5.636289986974
0	29979	17541.804451431613	2.303392099926
0	29997	17548.202161498646	2.820266041034
0	30005	17551.763900702088	13.504191337037
0	30022	17588.17481487861	2.0154909484
0	30025	17590.057527320479	6.337813608664
0	30047	17608.539232438267	1.248215962574
0	30050	17610.024021920212	7.374774407046
0	30072	17625.766148585643	1.714443109426
0	30075	17627.525972762148	4.297655030899
0	30090	17633.226486104143	5.336097443253
0	30095	17638.126646742254	1.915326223895
0	30128	17660.8949295253	7.171085115554
0	30131	17662.482928708426	2.898571298525
0	30134	17663.83901830767	8.002551311627
0	30137	17665.603567143573	13.363656457782
0	30145	17678.218332171167	1.206322074495
0	30157	17687.295383426858	2.74523699075
0	30172	17694.115101389029	2.103136569301
0	30175	17695.839271874354	12.104704413066
0	30180	17702.070023743648	1.458120267652
0	30217	17723.640614143733	1.746527673118
0	30220	17725.252670601357	2.19590621481
0	30225	17731.201460959111	1.5141505301
0	30235	17737.202533440933	1.623021483421
0	30250	17744.401072438555	2.151354038857
0	30270	17760.959467712384	1.482426843606
0	30287	17767.089151246161	4.514606467075
0	30314	17776.954840430576	2.61682394753
0	30325	17781.668851731862	1.906605271998
0	30340	17792.606109369562	6.547004733763
0	30345	17801.005982959617	1.67452325318
0	30350	17803.410201782418	1.714108912461
0	30355	17817.396746652492	1.465865255333
0	30360	17824.90653069769	1.569943336211
0	30365	17828.079523717168	1.389658808708
0	30390	17850.361396578931	7.590628452426
0	30400	17858.744607680104	4.424964030181
0	30417	17864.582088152338	4.609514350444
0	30430	17869.748491389647	7.131520553615
0	30447	17880.09944685025	4.577621572998
0	30452	17881.792010138536	6.81843477054
0	30460	17892.034393357252	1.711480168626
0	30465	17905.937519790475	1.865724619851
0	30477	17922.424792274748	1.967165896669
0	30485	17927.684776649837	9.403237618204
0	30500	17938.593115154371	2.115065450665
0	30507	17950.30718229998	1.67257333044
0	30537	17962.48029600528	12.965981268956
0	30540	17964.168541225576	3.075308453477
0	30583	17993.445342984151	11.049803517387
0	30591	17996.460026425969	3.073528750704
0	30594	17997.677612899903	14.287577471599
0	30632	18015.789850771932	1.397095338255
0	30647	18020.485846375434	16.60810805126
0	30650	18022.050489641113	13.34995575872
0	30675	18045.37061377153	4.494886872894
0	30699	18066.40632301909	2.314326167919
0	30706	18067.746774475138	7.529781641546
0	30712	18070.764401010845	3.334297740873
0	30735	18082.963345519923	15.824364796843
0	30762	18093.935446888664	4.790096311783
0	30780	18103.646561463075	18.094472139535
0	30785	18105.674301737543	1.449443645962
0	30799	18111.161898586527	2.280069985235
0	30819	18117.648353534938	3.81240990882
0	30837	18123.362676435337	15.173552234657
0	30840	18124.873067474179	15.490897000194
0	30852	18129.846883287574	3.003562735356
0	30885	18141.143045069855	6.406489501328
0	30894	18142.410920504686	7.757358702706
0	30897	18144.277228327301	5.739713816706
0	30900	18146.144082683903	7.20547664894
0	30920	18152.741527155806	23.531100390711
0	30940	18159.545542158206	17.612365437938
0	30953	18164.8051787995	24.829162425069
0	30970	18169.380775774104	22.408238191583
0	30973	18170.960695681182	14.803081228615
0	30976	18172.243417949436	30.885417271905
0	30981	18173.481104621125	12.208793077409
0	30999	18179.785462292117	1.937975307307
0	31002	18181.736323923451	8.955339051945
0	31015	18197.190661079681	1.419564483501
0	31025	18210.616168136992	2.625274038582
0	31030	18217.754785246869	1.566232359223
0	31035	18222.794952428063	1.498549320735
0	31047	18238.617261713261	2.947367337763
0	31052	18239.951922682377	4.406912661903
0	31060	18243.687011693779	3.900503045697
0	31065	18261.927149322635	1.412935872748
0	31102	18279.695654815778	7.778199961103
0	31132	18293.164675736008	23.882774883651
0	31137	18294.707716724416	2.603502110344
0	31147	18303.340657693744	1.676413531229
0	31166	18308.642238821194	14.381804660245
0	31169	18310.099762689241	2.509816077692
0	31197	18319.615909281105	8.678852110341
0	31209	18331.264405261325	1.342939161882
0	31227	18337.565004692285	7.48720224802
0	31234	18339.169152020908	8.843886686683
0	31242	18342.569116935938	9.45043152786
0	31267	18352.101133850243	14.074599495016
0	31270	18353.48773552331	10.879674015631
0	31290	18365.515594123493	4.779584329389
0	31297	18367.896582797463	6.996271549375
0	31317	18376.354877199383	5.874526584061
0	31320	18378.258831368165	10.937455222201
0	31325	18384.182335583643	1.864132880792
0	31342	18396.050604788372	5.463866922187
0	31388	18411.185344791959	11.566296610564
0	31393	18412.516064130875	3.935025702549
0	31401	18416.214708595338	4.293505842491
0	31413	18419.298828612069	20.796216751075
0	31416	18421.280765179718	8.729390124646
0	31437	18434.094985300862	4.312823922058
0	31440	18435.76009169072	1.919529825907
0	31445	18442.028767752104	1.212461040914
0	31457	18450.29898450652	3.592233865041
0	31470	18462.046012251192	2.597880247672
0	31490	18483.022023110931	6.488180945303
0	31500	18488.288282254731	11.808023920581
0	31510	18514.206009938433	1.448505642451
0	31517	18517.332413356297	1.683847313002
0	31522	18519.26938106484	3.574035754639
0	31525	18520.893232729018	2.19278702384
0	31530	18523.461871417749	1.975463465787
0	31540	18538.3323052667	1.741319769248
0	31589	18565.080857755364	1.445757842995
0	31592	18566.401459897057	16.485768769558
0	31617	18575.498384659376	5.30481559716
0	31620	18577.259513656806	5.14766020663
0	31627	18592.445977931698	1.888524466567
0	31637	18595.264379102965	1.684498978266
0	31647	18598.188292975051	6.718913053899
0	31677	18608.292026630499	10.550981339465
0	31687	18613.22151293633	10.736333365629
0	31692	18614.818529422669	16.53157352552
0	31705	18621.59450494358	7.918595210837
0	31710	18627.43511647709	1.301801123098
0	31735	18638.336203794273	10.766921492812
0	31759	18657.438219607603	3.210680150601
0	31762	18659.423932261188	3.718998774503
0	31782	18666.205791076905	3.148214402946
0	31787	18667.729360186196	5.278971259164
0	31795	18671.512737594696	3.920541689486
0	31800	18674.785239543515	1.236436004378
0	31805	18679.379023318233	1.927188391052
0	31812	18683.459777751464	1.772121252492
0	31820	18687.42639241982	1.514436830766
0	31832	18698.851331703538	2.039285173572
0	31837	18700.455340483958	1.720763926609
0	31855	18707.164368962484	5.697765928165
0	31860	18708.631785895482	6.179296252889
0	31875	18715.968987158394	6.024585185193
0	31880	18729.279825475426	1.994369753636
0	31885	18737.104027986124	1.596803886443
0	31907	18753.890754471778	5.098238355294
0	31915	18757.706102198734	8.140131547251
0	31922	18763.006747851347	1.347083210945
0	31932	18768.496912924336	1.748164882697
0	31960	18793.892938505065	14.576588376049
0	31970	18799.834013866952	5.53723931391
0	31987	18815.676645866784	1.798548849523
0	32010	18865.934265029617	8.956491581811
0	32020	18870.031759470045	3.647777157312
0	32025	18873.693247797769	1.330996623822
0	32045	18935.23123796572	4.855730197397
0	32055	18961.273234552796	1.859463546798
0	32089	18971.468522342326	4.092069482629
0	32096	18973.046127178552	6.946823298829
0	32104	18976.790511305848	3.896769828674
0	32107	18978.036144229056	14.640444051941
0	32122	18983.675915779694	3.140726338757
0	32147	18992.332317022563	8.861149144159
0	32152	18994.04407899096	7.30602568291
0	32155	18995.870493320519	3.290440560057
0	32167	19017.484291930676	3.337718062069
0	32182	19029.269169217713	1.331394624524
0	32197	19034.306411163315	2.008498706456
0	32207	19037.997825297278	8.241283593346
0	32229	19044.316595232455	7.344988214765
0	32252	19051.833607313931	4.113349783793
0	32260	19056.336497482476	14.335305983217
0	32285	19074.953409850194	13.442954131774
0	32295	19080.259148766235	5.197052360681
0	32305	19087.519001845775	4.083834641761
0	32310	19096.28640168723	1.971053061821
0	32320	19108.938332273319	3.349846828005
0	32335	19128.335058351947	9.372004903694
0	32340	19133.303867240102	1.336104338802
0	32357	19140.831629108615	3.321979293099
0	32362	19142.110654614843	3.939094000278
0	32365	19143.852041795268	6.474292492307
0	32375	19163.539862802174	2.348547879074
0	32402	19175.931006401229	10.475429665465
0	32410	19182.676804166106	8.265870285663
0	32425	19193.896477185685	4.085148411775
0	32435	19201.714394900986	3.101000274361
0	32460	19223.651184463936	2.253060232292
0	32491	19232.540726629519	16.884935823471
0	32497	19235.840519420304	9.518837247365
0	32507	19241.036205097379	1.934538669512
0	32523	19244.236844904626	3.198070045714
0	32526	19245.984665341394	16.246072421305
0	32541	19251.246138018089	11.84126735657
0	32553	19254.356606238613	25.519759278403
0	32561	19256.843227203655	2.956540545374
0	32566	19258.164853671099	16.911338234533
0	32574	19260.832788619119	3.1097725322
0	32577	19262.527267864439	11.692776760043
0	32587	19265.806920517328	3.147578391108
0	32595	19272.973490052825	8.323822218577
0	32600	19277.855945012929	1.811853625067
0	32610	19293.551203574343	4.188131665268
0	32620	19297.521161619578	3.719745342389
0	32627	19309.752733251136	1.206910311617
0	32645	19333.731372698006	1.489001950249
0	32685	19354.666464943262	2.783611227917
0	32692	19360.075823575753	1.578079462238
0	32709	19364.783654383934	1.512553461716
0	32727	19371.7943495104	12.782180025278
0	32735	19375.132376714483	11.046739820499
0	32779	19399.917209821003	12.049785033554
0	32794	19405.06496845297	14.444379111397
0	32804	19407.963132524485	2.835237985508
0	32807	19409.757075832779	16.627032097342
0	32825	19417.379437110565	7.030494462172
0	32851	19428.269836180523	6.403619311243
0	32869	19434.477611597306	8.114257206231
0	32879	19437.779784301534	4.017976523927
0	32884	19439.351363919168	11.303895527035
0	32900	19446.479910833067	8.267753594434
0	32915	19455.067098776961	27.854663183149
0	32920	19457.224025111206	1.324616019987
0	32925	19474.426445316686	1.706398758106
0	32930	19484.850345755009	1.479602394253
0	32935	19491.129511446739	1.68350963667
0	32940	19495.451606277479	1.838956865668
0	32945	19498.532878143529	1.476826890558
0	32950	19504.196719404092	1.407651669532
0	32972	19520.291383138289	7.83285582696
0	32975	19522.21835017818	6.013842940582
0	33005	19535.574074854963	1.919428955603
0	33010	19537.883566311912	11.53149625188
0	33015	19541.96209450742	17.617423020892
0	33037	19576.37999196184	1.241186338291
0	33042	19578.063338786561	4.744612523349
0	33047	19579.988765427295	3.36891815684
0	33057	19583.944036869209	4.076213247852
0	33070	19590.888451693362	7.747921769601
0	33080	19603.29970194044	6.084037010569
0	33085	19617.835011339562	1.602314666659
0	33090	19619.565716109333	1.665197205916
0	33095	19627.164460141525	1.446065267548
0	33110	19637.257281573048	4.904743684083
0	33137	19646.365688646788	13.531034580851
0	33149	19652.304486129839	14.717954091897
0	33156	19654.23027264237	14.620854163357
0	33164	19657.222906339015	14.044230439614
0	33179	19662.468883942473	21.673684227825
0	33182	19663.681618848476	2.007362947894
0	33221	19676.58227626102	4.526118308261
0	33224	19678.200422810744	32.618230871241
0	33235	19685.066821997197	30.234301938513
0	33250	19695.861537942681	8.461951997998
0	33255	19699.257745226546	1.694345819205
0	33260	19706.770332421552	1.439401108213
0	33292	19719.587743130109	11.180031547946
0	33310	19726.335628492176	15.312807061029
0	33327	19736.456189358466	7.623018692938
0	33362	19748.604982872862	1.837091604277
0	33382	19754.902065717612	14.591736007742
0	33399	19759.951627084237	10.9011375795
0	33404	19761.513765478503	26.84710466909
0	33407	19763.271608487513	7.750320046986
0	33410	19764.935397072133	4.147287598182
0	33427	19776.535658115657	5.360006809251
0	33430	19777.836310376177	4.821167648584
0	33447	19792.491209255583	7.123205183134
0	33460	19802.077546913426	1.762300937064
0	33465	19804.602997604354	12.293156459975
0	33475	19815.14530838527	3.072535665081
0	33495	19822.304728322851	1.63221766284
0	33512	19833.009828097223	1.396587612107
0	33540	19858.922895755617	1.678848249093
0	33547	19861.91935928859	1.463689861633
0	33555	19866.194099745716	4.87411508857
0	33570	19872.562640497247	5.58386212243
0	33575	19876.921497913852	1.665425783582
0	33595	19889.093099277589	10.669810997968
0	33611	19905.351161925272	2.039484112243
0	33614	19907.047172461786	3.417485215829
0	33617	19908.307582512834	4.135186948059
0	33625	19911.961428562853	9.635914923774
0	33635	19918.0182842974	2.290021622561
0	33640	19924.18879461517	1.5311220387
0	33645	19955.020300347615	1.500505331717
0	33650	19957.928690882303	1.287397251837
0	33677	19971.326302650833	9.763665755067
0	33680	19973.11787871428	6.020616773128
0	33695	19988.909311964533	6.838036290275
0	33711	19993.902976141787	1.338207023963
0	33714	19995.775168738245	3.165364193792
0	33724	19998.888862632319	2.470381585208
0	33735	20004.254500675678	13.296383753694
0	33745	20015.861995145038	5.948815104234
0	33765	20052.390218554042	7.495109387492
0	33777	20060.134441983153	1.672023875825
0	33797	20068.898005467031	9.180922189639
0	33800	20070.542453242961	6.191596407886
0	33822	20092.265523923649	7.702153736007
0	33825	20093.748050286523	4.929259763472
0	33845	20110.809498301456	10.32986896977
0	33850	20115.048751023869	1.579570740648
0	33855	20128.230445170111	1.763994930685
0	33870	20165.502582530604	7.644092909423
0	33880	20176.803016634706	5.424551927178
0	33890	20186.208000167937	2.509289274208
0	33900	20190.922407011087	8.109823240378
0	33917	20207.71230093559	1.949595153674
0	33922	20209.295989028008	5.190035028915
0	33930	20215.9832213598	7.54559528054
0	33935	20221.174151564388	1.700403126888
0	33942	20225.299143454044	1.228506376967
0	33950	20228.688156824489	4.326767383901
0	33992	20262.44724519794	3.550648776288
0	33995	20263.832557580258	2.141925249697
0	34000	20268.604646187503	1.588806588389
0	34029	20284.602128681058	2.511522472948
0	34064	20295.450207979308	5.348689401713
0	34088	20305.089623592125	17.15645165201
0	34093	20306.538086445333	12.667355714114
0	34101	20309.020807658398	4.563255133641
0	34107	20311.815147134737	8.864328275439
0	34126	20316.24139804978	2.888916513127
0	34143	20321.449091951997	5.744916994069
0	34157	20324.420209715591	18.538529012027
0	34160	20326.277695902326	6.220365195945
0	34172	20329.67529409349	7.192260469091
0	34194	20335.975513818377	4.794158891444
0	34199	20337.887997678743	24.380370306634
0	34212	20343.149783092999	13.594374402917
0	34215	20344.603325735853	7.739445719372
0	34218	20346.163148323522	24.183235410568
0	34221	20347.636444613786	13.185400220795
0	34231	20350.247959315294	2.554748295403
0	34268	20361.829884377756	11.077334665216
0	34271	20363.69688647043	3.385405395439
0	34274	20365.67882222578	4.754199046338
0	34281	20367.575874994398	6.288082980387
0	34284	20369.177898181491	2.58693870856
0	34329	20385.682833046689	13.140337569097
0	34332	20387.266075938045	10.914805659605
0	34350	20396.256301353574	7.066585711206
0	34357	20398.791002021005	1.354685272835
0	34381	20405.946141113028	4.492881219639
0	34384	20407.575363072254	7.124059835821
0	34397	20413.341843715929	15.225121371812
0	34417	20421.604487285049	6.230514653345
0	34439	20429.057132178707	8.867995584751
0	34464	20436.977644896484	1.809116405082
0	34469	20438.56018838936	9.881845593157
0	34472	20440.030274131312	4.233774511076
0	34475	20441.523121307953	9.229045326502
0	34480	20448.268210457614	1.521991331503
0	34503	20458.39976935431	2.332766254729
0	34516	20463.433622677137	5.762269469176
0	34532	20469.379985880924	14.896677910538
0	34542	20472.914443144647	22.704837773682
0	34545	20474.786980442589	17.437434554998
0	34560	20519.275178937427	1.990372365899
0	34575	20526.809294907454	6.512667543703
0	34614	20546.572016153361	2.356722571123
0	34629	20551.543323691997	6.941504782603
0	34658	20559.98079597528	6.216912919341
0	34666	20563.16739695358	7.209025767604
0	34682	20569.52809189136	2.372442776207
0	34727	20587.707094786516	2.616940617782
0	34730	20589.10118312092	7.177758048277
0	34735	20592.821133041838	1.832912021875
0	34750	20609.894806927697	8.533658324361
0	34759	20611.307158048125	1.210545712151
0	34784	20621.225092365777	7.12428930319
0	34787	20622.600663561186	2.668869354226
0	34800	20629.085550346211	17.895046874469
0	34834	20642.726260461374	2.370279369386
0	34842	20646.008646095632	6.732213063351
0	34850	20649.083488150402	2.396802616181
0	34857	20651.39362556657	22.242858138356
0	34920	20678.885616242631	3.636717074487
0	34926	20682.842222956686	5.960051513932
0	34929	20684.07263682068	16.827726619447
0	34937	20686.854006103916	35.637676570824
0	34955	20695.427382427256	1.718288240395
0	34965	20699.009670522109	26.640362046347
0	34970	20703.182906259912	1.914619144611
0	34980	20709.282563350776	3.519316363187
0	34995	20724.543625141634	7.069185586066
0	35039	20741.889200412842	15.024799344459
0	35044	20743.265076535928	12.157973031756
0	35047	20744.634384159545	4.246450052917
0	35067	20750.426525935704	5.673395447738
0	35084	20755.249185794021	2.841715835572
0	35087	20757.058843197289	3.338303886758
0	35107	20765.635891873674	32.168719874236
0	35110	20767.060809991048	3.513590617339
0	35117	20769.094363475639	1.513017874956
0	35120	20770.658840241704	8.175123818541
0	35125	20772.290456613493	1.593318565562
0	35130	20779.358061933544	1.678256545402
0	35140	20785.07520526865	3.237548794521
0	35150	20794.194593841516	1.766024794243
0	35157	20802.361627370249	1.788571454026
0	35160	20804.03000873154	1.888423654467
0	35165	20806.474095511454	1.487140735239
0	35170	20813.750842960824	1.627969566174
0	35175	20824.262717884873	1.500042480417
0	35182	20828.896674220517	1.216917290539
0	35194	20831.478941195525	1.502463774475
0	35197	20832.878108885392	2.745011820391
0	35205	20836.394664220007	7.53032674115
0	35215	20840.267391372225	2.744150378544
0	35225	20844.402401898404	2.367254034735
0	35230	20851.403528251649	1.447412603907
0	35235	20867.150540567124	1.470857893117
0	35260	20878.575665566541	11.118608832408
0	35267	20891.790189460359	1.749612461403
0	35270	20893.251611069843	1.901995784672
0	35296	20902.974364462279	3.963237444623
0	35322	20912.677208478161	14.82440093218
0	35334	20915.753560281703	10.867007496384
0	35339	20917.602919565858	4.680101118522
0	35344	20919.107556014293	19.824261322836
0	35352	20921.835826485389	25.183056886681
0	35360	20924.462444240757	2.27941071473
0	35392	20933.139948703028	7.375539861908
0	35395	20934.85662573339	17.993712148989
0	35402	20952.461144031889	1.760173466243
0	35405	20954.025236541338	2.779292372672
0	35410	20956.34465243317	1.621199761331
0	35415	20962.164579443541	1.301657331735
0	35420	20969.035172389405	1.309249772877
0	35430	20984.712936484042	6.168579587696
0	35435	20992.287443077856	1.723896232434
0	35467	21009.390606696959	1.921025447361
0	35472	21010.912916806954	16.974040452356
0	35475	21012.262206716518	7.167991857302
0	35480	21014.383776103381	1.999018929899
0	35500	21027.360413879076	6.481072886694
0	35530	21044.003544670026	1.342936267145
0	35542	21059.260830547066	5.027345646278
0	35550	21062.308511686103	1.537829823744
0	35579	21079.888077880273	5.445563746981
0	35582	21081.129198915901	10.870394659747
0	35590	21086.40382925821	1.287085508555
0	35610	21101.834233383271	5.322163935455
0	35615	21103.43663161608	1.371853469871
0	35620	21105.32809631315	1.747055671737
0	35640	21116.146477905514	5.062871487385
0	35652	21121.750903766509	12.862027028128
0	35655	21123.168739149999	6.825355724692
0	35677	21136.114260754522	2.166348777432
0	35682	21138.102350616057	3.459503712748
0	35699	21143.716349115212	3.44750895712
0	35704	21145.533366607305	3.986669706783
0	35707	21146.980907603529	6.858647365309
0	35722	21151.120457288053	6.730993727484
0	35765	21172.042971904019	9.797157532128
0	35781	21176.173626761197	3.358302824409
0	35801	21183.119107587694	10.156370852027
0	35811	21186.573660144455	22.965456102138
0	35824	21192.090161419346	2.538335943147
0	35831	21193.841746478959	9.467684795116
0	35839	21196.593239210046	29.300744991311
0	35842	21197.879100868165	4.790425012638
0	35860	21214.932636869847	1.403461331688
0	35882	21233.237789692116	2.568237847397
0	35900	21242.531548381163	16.939067439677
0	35934	21261.368895798277	1.939995977741
0	35939	21263.172962860677	13.712619091465
0	35952	21267.941186159949	9.8366405431
0	35960	21271.35173537946	7.839362013103
0	35985	21286.680606819483	7.02562845248
0	35992	21296.731008823805	1.401528247818
0	35995	21298.083412171558	2.489364989244
0	36021	21333.881616996204	1.231968130916
0	36031	21337.003509566908	15.94929815897
0	36048	21341.820745105272	8.037046466669
0	36056	21344.676412609381	11.727383474934
0	36074	21352.480407024946	12.326025498605
0	36092	21358.666390990305	5.733168309119
0	36100	21370.517630995941	1.686356989294
0	36109	21376.453958230701	1.999513997883
0	36114	21378.189289610137	2.658657830669
0	36125	21382.568220897626	5.199737032884
0	36130	21387.005336161764	1.797801696509
0	36171	21408.914275469202	1.648880365967
0	36180	21410.250481097157	7.275546806864
0	36183	21411.933854963946	2.710331482396
0	36209	21422.165955432447	12.516811084964
0	36227	21428.625392546634	2.348282684969
0	36239	21431.807609456535	22.150445811929
0	36242	21433.737751658391	2.256900634467
0	36290	21470.258073747436	14.613606954002
0	36300	21482.808943767348	4.053434450485
0	36310	21491.254417395681	1.341556727327
0	36319	21493.090858262531	1.704105117731
0	36332	21498.283884330593	5.292722249476
0	36335	21500.202600674644	3.455195749458
0	36340	21504.99975155542	1.886114265956
0	36355	21513.945965127523	1.756463643617
0	36360	21515.973423480614	9.662374732997
0	36377	21525.005834181872	3.174221258218
0	36424	21543.662318000494	24.321270850342
0	36429	21544.905384991242	8.223012211418
0	36434	21546.395845683216	2.093058461117
0	36437	21548.394092473126	12.726422502115
0	36445	21553.432771460125	1.429025132395
0	36450	21561.405114747177	1.7553681463
0	36462	21572.636244263321	1.289972940274
0	36467	21573.896391152412	1.78078626381
0	36485	21591.10314768014	6.521160908952
0	36492	21593.056758966128	1.707557733729
0	36512	21601.659750448072	2.972671326216
0	36522	21604.904960944781	3.088730139386
0	36534	21607.668588432947	2.434930665552
0	36551	21612.37648592023	4.926493001774
0	36564	21617.294019257182	6.268721345844
0	36577	21622.579503966587	27.261917094159
0	36587	21627.013712134919	1.202244514786
0	36599	21631.418477100334	5.391384571919
0	36627	21640.639977296043	6.064995968883
0	36645	21648.280717061772	18.660702793189
0	36670	21677.7052298745	7.592391024191
0	36675	21722.494556707445	1.691250188835
0	36680	21724.759473403607	1.987392728031
0	36710	21736.46168777389	7.405668896995
0	36725	21752.293620083024	1.706258961
0	36730	21759.326732932019	1.803310838528
0	36735	21765.442089855145	1.900258147903
0	36740	21772.227894814487	1.444553491846
0	36755	21789.754200742339	7.200025931506
0	36777	21804.653330476758	4.747871522419
0	36782	21806.287870306698	9.284969223005
0	36800	21825.45122974592	3.281007352595
0	36819	21832.116879230514	2.140625909955
0	36822	21833.632186456732	6.870142438753
0	36830	21836.886115249581	2.703379754646
0	36837	21838.891955623067	7.163621557296
0	36854	21844.135213063718	1.66022995033
0	36870	21859.268353257006	3.487979470737
0	36875	21865.051752079886	1.274472995475
0	36902	21883.326005848329	12.038842478724
0	36910	21888.402108122994	8.431190230643
0	36925	21894.692625645527	5.269246130623
0	36940	21920.024183537445	1.857352016494
0	36974	21930.394009447777	2.773078254891
0	36996	21937.182889468716	3.439013664845
0	37001	21938.461806293325	18.231316509869
0	37017	21944.484809807995	2.815308895275
0	37020	21946.47449828268	14.405681726456
0	37071	21969.719857088461	2.647628367445
0	37074	21971.259736207298	14.484982149346
0	37081	21973.239875563777	4.553741352071
0	37084	21974.909015354312	13.782823269033
0	37089	21976.626789120383	10.096166341193
0	37100	21981.414694737255	5.596753778895
0	37117	21988.950512405193	2.717518888285
0	37125	21993.35621453086	11.399555847043
0	37135	22005.629441149031	5.138125182986
0	37152	22014.658024984462	8.354680854541
0	37160	22023.863932205604	1.780760449357
0	37165	22031.303763216877	1.470719403401
0	37177	22036.463469278373	1.618939445184
0	37200	22046.407413039427	5.970545053162
0	37210	22052.65161491557	19.093151083832
0	37233	22058.915235413955	3.178309917808
0	37236	22060.63335572292	6.840780989453
0	37241	22062.401282546082	5.688600680326
0	37244	22063.813744432823	8.967677295123
0	37247	22065.746631445334	7.381803812327
0	37260	22070.80233318244	9.925309179056
0	37275	22087.426819073701	1.635937620699
0	37290	22099.879009561969	8.740154125563
0	37300	22108.121674107554	2.788263922637
0	37325	22136.967306341643	14.680131361616
0	37342	22155.161361296	2.168904489455
0	37385	22178.761250345066	4.914462613876
0	37395	22183.87167036272	1.756136865169
0	37424	22197.190539141474	3.099846391365
0	37427	22199.048927818155	4.364082817089
0	37435	22202.558437728532	8.582768090735
0	37440	22216.002589858956	1.735170799866
0	37486	22250.601535077025	19.055464389175
0	37489	22251.855751428385	2.472597035901
0	37499	22255.067811686922	4.774108813978
0	37507	22258.263459401209	14.986333823837
0	37512	22259.636535929334	4.261815947904
0	37527	22264.987220090633	12.184753067944
0	37550	22278.885178347832	2.345568879951
0	37564	22284.519241532834	1.82536910139
0	37567	22286.475524514878	3.259340633681
0	37570	22287.826926639268	13.4038851139
0	37590	22316.193200867428	1.306536612473
0	37597	22318.782907487298	1.633373124339
0	37605	22322.878690845282	5.18400291418
0	37627	22333.909636172618	4.730347441911
0	37630	22335.795985255356	2.09135331205
0	37652	22355.365678308314	4.863866690693
0	37659	22356.837530729143	7.369867457821
0	37669	22360.340166599644	3.766189161779
0	37672	22361.582621758772	5.933360003489
0	37675	22362.803200714258	3.065385703782
0	37680	22375.591936630224	1.615399285406
0	37685	22377.971401512129	1.803134298883
0	37692	22380.2764976996	1.963484084979
0	37715	22393.585635795347	13.377777717181
0	37725	22400.431673446002	3.860294651548
0	37730	22403.373327480861	1.484094634093
0	37735	22409.289831812176	1.494848877192
0	37740	22415.417082668417	1.750480571203
0	37752	22426.255374188058	1.63457413431
0	37755	22427.965742475063	5.233805261926
0	37760	22433.657282257165	1.273268738948
0	37769	22446.091603155626	1.55118811205
0	37794	22454.614575012964	8.69670627451
0	37819	22462.249271207866	6.139212960378
0	37830	22467.093187579497	13.757971841497
0	37835	22468.751854421354	19.855595952831
0	37845	22480.778747998142	1.220807060786
0	37850	22487.495888885389	1.406100911833
0	37870	22517.535421371679	1.870283647254
0	37904	22527.709440337815	1.746359316861
0	37907	22529.684384912201	10.299190669952
0	37924	22534.096358465654	2.38459509011
0	37939	22538.951578184095	6.043439918627
0	37955	22545.657257487473	39.674332794802
0	37970	22568.657596028083	1.261785006337
0	37994	22593.516899033411	8.483244892169
0	37999	22595.445858326702	3.424237707524
0	38014	22602.613751072646	1.924649682269
0	38027	22607.371006044768	3.348726243862
0	38032	22608.967390576028	18.350747396113
0	38035	22610.39654533586	16.702738105807
0	38042	22613.606363050504	1.385171460919
0	38055	22621.465006370256	8.8343036099
0	38072	22633.447632608167	4.042038960159
0	38112	22646.576057130796	10.029553378849
0	38115	22648.557919545611	16.072448212267
0	38120	22671.125936560039	1.321460907161
0	38135	22676.258110763653	4.76306345649
0	38156	22681.233924215653	4.905694799311
0	38164	22684.550892441155	4.036994882329
0	38183	22689.691709429206	6.38097980328
0	38194	22694.528426904411	3.377112964358
0	38204	22697.59093900937	20.016840339164
0	38219	22702.061480914422	2.728645153164
0	38222	22703.313848032609	14.122807414599
0	38255	22716.479821401725	10.500583708919
0	38267	22731.374770792739	1.350441786394
0	38275	22734.57898476755	1.918356196772
0	38297	22740.764379165538	4.687567556421
0	38300	22741.966363892362	10.638829594535
0	38305	22749.015977662109	1.353753367253
0	38315	22764.147760629904	4.972161462093
0	38332	22770.864575004634	6.685559493372
0	38335	22772.256291280371	1.788914939191
0	38369	22785.109375034402	7.477142053742
0	38372	22786.407959797921	12.264590917667
0	38375	22788.00821049189	7.050965664307
0	38380	22805.023195603777	1.67847344391
0	38385	22819.087107746133	1.512379068881
0	38390	22832.650964422338	1.617401155084
0	38395	22835.803194496044	1.379071417078
0	38400	22837.759071526507	1.457351186313
0	38405	22839.789368803221	1.559187071584
0	38432	22872.639025598278	2.407559259156
0	38444	22876.703193807855	4.893430116433
0	38455	22881.421469316885	2.282243568582
0	38479	22889.882205344009	2.875611933801
0	38504	22898.503357256173	9.883381100481
0	38542	22912.900603881022	7.35435375529
0	38552	22916.15637570071	30.683121496163
0	38565	22924.213060201126	27.685988629084
0	38570	22930.716891452925	1.266134396568
0	38575	22934.789392189152	1.992909243144
0	38582	22939.499391749964	1.744770565256
0	38585	22941.041859803625	2.632757287488
0	38590	22943.611952938871	1.892116316408
0	38607	22953.732561542535	1.636052844487
0	38617	22958.247392616622	12.084896725493
0	38653	22980.125891650689	5.375049098444
0	38670	22985.126792136428	4.836012672844
0	38673	22986.652782022801	13.557248071954
0	38681	22989.505815060657	10.639285112962
0	38691	22992.912195058014	2.878244654495
0	38702	22997.79231665324	15.941835137431
0	38715	23003.083787485462	3.768590913007
0	38740	23013.490202888471	1.587008887393
0	38747	23017.886636152867	13.790218375628
0	38755	23020.931113900642	3.971292025357
0	38760	23027.231478172407	1.835004626215
0	38765	23028.878297052429	1.368888371624
0	38770	23039.700297394161	1.73611046765
0	38794	23054.345255827984	12.214155058784
0	38797	23056.123174373886	12.112952019833
0	38820	23060.834203338332	4.12521112592
0	38825	23062.280699347414	11.271443226376
0	38828	23063.964195231616	5.817203985985
0	38831	23065.873176440306	6.358699683334
0	38839	23069.550690314814	12.915841441229
0	38861	23075.967334771424	3.41398295477
0	38866	23077.938172621734	4.48992107641
0	38879	23083.155327838927	23.584070048502
0	38902	23091.56151502066	7.411181228569
0	38910	23094.283224516629	12.707276530091
0	38929	23102.466840221635	6.008232534764
0	38934	23104.071074826172	2.176714112252
0	38944	23107.64715843731	3.342389459319
0	38967	23115.333852925985	11.27908106858
0	38994	23123.209903873981	8.642024419235
0	38999	23124.812613923022	8.574179800469
0	39010	23129.631791011349	5.869487791849
0	39015	23131.687769539995	1.610642934032
0	39032	23139.16412094078	5.014377161488
0	39035	23140.74566736306	6.168492298411
0	39040	23143.690322040002	1.728616097756
0	39050	23158.556754052104	1.749806035124
0	39060	23174.838914915216	2.760087789755
0	39072	23178.937365896634	1.440951952711
0	39077	23180.933937745175	3.398443867808
0	39095	23187.883217126172	6.413649264413
0	39122	23196.874551037008	4.41213767957
0	39127	23198.361885562779	7.389803984102
0	39151	23205.87663441641	7.650150048365
0	39154	23207.530849417725	8.450205522276
0	39167	23211.613162922146	1.329033897631
0	39175	23215.459144283734	15.607507042286
0	39180	23217.521334826036	1.543551986106
0	39197	23228.176552120694	6.010290915431
0	39205	23231.790786120243	7.207072638384
0	39210	23241.287039144078	1.510934423096
0	39236	23278.472487636288	2.940441875635
0	39239	23280.298112660279	3.857146495027
0	39242	23281.813616103312	7.087549226918
0	39262	23289.643884282493	6.478199956645
0	39274	23292.297116375596	4.269005728917
0	39277	23294.198261656121	3.068022429216
0	39285	23303.150888125088	1.653803180531
0	39290	23307.736177189657	1.735347368754
0	39325	23322.022943663647	12.581290057284
0	39330	23324.11521749658	14.466883893322
0	39335	23327.371558251383	1.923937296309
0	39340	23340.418637228355	1.742004319839
0	39345	23347.436314990173	1.89052265361
0	39350	23360.737376907838	1.527857590094
0	39355	23387.045778285887	1.405556720495
0	39360	23390.590230236034	1.608171151392
0	39382	23409.587831524559	12.626116155582
0	39385	23411.408317158543	2.409913468738
0	39390	23416.851410055588	1.866599517874
0	39407	23428.680270859272	5.620246757939
0	39447	23452.17129240626	28.847503557987
0	39457	23455.13975851886	7.837830063166
0	39465	23458.89663688436	10.539860126659
0	39477	23462.903241048329	1.509473970905
0	39485	23466.110673594267	3.506681778117
0	39495	23470.527920759985	3.863487699239
0	39511	23476.301108791196	3.075374620342
0	39519	23479.932302694285	5.72789609982
0	39524	23481.460463772231	3.403189701444
0	39529	23483.326331850217	9.698927207356
0	39532	23485.071720488445	1.745830173077
0	39544	23487.867118119151	2.753416366024
0	39547	23489.690951410011	3.991411999935
0	39581	23503.08486041439	11.188397827678
0	39584	23504.841994546105	2.829669861375
0	39592	23507.705260855828	7.841115401992
0	39625	23523.278634784347	21.249668631677
0	39632	23527.694974615304	1.472909198888
0	39655	23549.094067593259	4.284004431146
0	39660	23563.059417277593	1.313364302926
0	39665	23574.258294947589	1.618676602468
0	39670	23578.134640090343	1.92980886139
0	39714	23607.707917555635	6.068804338184
0	39742	23618.959371963065	6.259974056759
0	39759	23624.065680444721	22.584462319582
0	39764	23625.851235677224	6.288327614273
0	39772	23629.264395821575	2.410670161527
0	39780	23632.612485977743	8.410138790711
0	39807	23663.811350010539	3.077293548316
0	39810	23665.719052784721	3.805888157021
0	39820	23676.196353097074	5.71280915735
0	39830	23684.124260603456	4.873197144546
0	39857	23705.559394466519	9.478421549684
0	39872	23709.968877651929	12.676772549474
0	39885	23715.356035179067	11.368078873321
0	39890	23717.544033771893	11.711488954541
0	39895	23721.606902585386	1.265990288742
0	39907	23741.685044953871	3.298143175184
0	39929	23750.449117763616	1.965377542377
0	39932	23751.876813758254	2.844038486122
0	39935	23753.380186920889	6.328219817701
0	39942	23768.115070464211	1.948034719937
0	39962	23774.390019729697	1.79100886378
0	39975	23780.215881730439	12.970000848179
0	39992	23790.900592366944	5.070790439285
0	39997	23792.11101747934	5.867972479873
0	40012	23796.759317658942	2.686410013355
0	40055	23819.003410096132	14.189102037687
[...]
8	21396	12716.075368633447	1
8	21400	12717.58730577128	0
8	21403	12717.934875648422	1
8	21406	12719.921712769707	2
8	21408	12720.841809356052	1
8	21411	12721.724836301198	2
8	21415	12723.106532965768	1
8	21420	12723.433773970096	0
8	21665	12875.88017655784	1
8	21666	12876.006810767308	0
8	21721	12893.276398035058	1
8	21724	12895.234848592908	2
8	21726	12895.288389229946	1
8	21728	12896.338940276596	0
8	21815	12961.853605255159	1
8	21816	12962.252873885483	0
8	21915	13038.211466043084	1
8	21919	13040.628253840912	0
8	21925	13042.744736561533	1
8	21926	13043.883507742324	0
8	21937	13046.849283147008	1
8	21940	13048.441624898613	2
8	21941	13048.79279240089	1
8	21945	13050.007181856581	2
8	21946	13050.883804314366	1
8	21949	13051.362626615537	0
8	22130	13130.916291698907	1
8	22131	13132.749453107001	0
8	22595	13477.383032070138	1
8	22596	13479.114281901375	0
8	22645	13496.441819922145	1
8	22646	13497.840299592753	0
8	22717	13544.00232136081	1
8	22719	13544.050077287762	0
8	22732	13548.346061350768	1
8	22739	13549.766344650589	0
8	23010	13691.631997866408	1
8	23011	13695.885822663358	0
8	23017	13697.314701636224	1
8	23019	13697.890260855993	0
8	23078	13720.451068072422	1
8	23083	13722.388296708437	0
8	23123	13736.198457540972	1
8	23125	13736.851974248365	0
8	23325	13838.355888046913	1
8	23326	13839.145390939024	0
8	23340	13844.106864718032	1
8	23341	13845.039128864217	0
8	23482	13949.7479341037	1
8	23486	13953.418579068234	0
8	23500	13957.344073247923	1
8	23501	13957.663424899835	0
8	23786	14112.9066624458	1
8	23791	14115.309923868327	0
8	23967	14192.641529280824	1
8	23970	14193.970078158697	2
8	23974	14195.712199508395	1
8	23977	14195.777737686205	2
8	23979	14196.277020632099	1
8	23981	14196.621209409763	0
8	23984	14197.083883147109	1
8	23986	14197.3349483315	0
8	23989	14198.46791071238	1
8	23992	14200.182077495176	2
8	23994	14200.718537645595	1
8	23996	14201.556233713018	0
8	24024	14210.182876978051	1
8	24031	14212.77642539273	0
8	24059	14221.571215990913	1
8	24061	14221.719059828901	0
8	24221	14289.240640881126	1
8	24223	14289.757742243612	0
8	24231	14292.301207540398	1
8	24241	14297.655509165567	0
8	24254	14300.830759992529	1
8	24256	14301.493440895611	0
8	24677	14551.552707982664	1
8	24679	14551.780138904454	0
8	24760	14583.379431723953	1
8	24761	14585.45746291825	0
8	24779	14590.226636605946	1
8	24781	14590.405806975042	0
8	24902	14654.228385875054	1
8	24904	14654.251736108011	0
8	25139	14754.920523493418	1
8	25141	14755.493821238173	0
8	25164	14762.34419246042	1
8	25169	14764.237346105704	2
8	25171	14764.491107779186	1
8	25174	14766.066521420197	2
8	25176	14767.208912230369	1
8	25181	14768.529375800485	0
8	25292	14803.141549134122	1
8	25294	14803.255119986319	0
8	25325	14814.844343596192	1
8	25331	14819.624598611953	0
8	25402	14870.70882814615	1
8	25411	14872.889355278518	0
8	25489	14908.052440397977	1
8	25496	14912.58820984755	0
8	25517	14923.931442530789	1
8	25521	14925.334849163865	0
8	25640	15000.465965917188	1
8	25644	15003.200418444817	0
8	25917	15177.181593066673	1
8	25921	15180.193455768132	0
8	25954	15190.859551570321	1
8	25958	15191.17240630973	0
8	26063	15225.320018048527	1
8	26068	15226.917726669589	2
8	26075	15228.450158341564	1
8	26077	15229.087336109603	0
8	26652	15635.448382954406	1
8	26666	15640.49553637051	0
8	26726	15658.866049797023	1
8	26728	15659.01842339054	0
8	26855	15725.116190844446	1
8	26856	15728.147204296201	0
8	26862	15730.018172305546	1
8	26865	15731.335475692063	2
8	26866	15731.920621101226	1
8	26869	15732.329346904086	0
8	26872	15733.571916751976	1
8	26876	15735.250402474065	0
8	26973	15768.380229196331	1
8	26978	15769.747070867202	2
8	26981	15771.295740359655	3
8	26985	15771.344287716023	2
8	26987	15772.860691715704	1
8	26989	15773.082393242323	0
8	27400	16107.67289118649	1
8	27404	16108.783317918665	0
8	27447	16143.731884717603	1
8	27451	16144.142385184846	0
8	27454	16145.524669111741	1
8	27456	16145.758044611759	0
8	27639	16242.104039047082	1
8	27641	16243.642182248347	0
8	27644	16243.675674981793	1
8	27646	16243.828122265993	0
8	27649	16245.598674311658	1
8	27651	16246.482296491469	0
8	27806	16308.295904759603	1
8	27808	16308.916415309497	0
8	27811	16309.790342021088	1
8	27814	16311.220430300484	2
8	27816	16311.781320509251	1
8	27818	16312.942180333524	0
8	27855	16322.342805562826	1
8	27857	16322.440702148833	0
8	27866	16326.406057944807	1
8	27871	16329.549312826972	0
8	27912	16351.864841725697	1
8	27914	16352.955836380672	0
8	27925	16357.013107027133	1
8	27926	16358.427491254202	0
8	28095	16411.890030263266	1
8	28097	16413.138098756979	0
8	28116	16419.98718320494	1
8	28121	16421.705709833367	2
8	28128	16422.955202428526	3
8	28131	16424.196792049235	4
8	28136	16426.107199280551	3
8	28138	16427.391886010349	2
8	28146	16428.982530874288	3
8	28149	16430.372630732594	4
8	28151	16431.714195292786	3
8	28154	16431.831710672652	4
8	28156	16431.983748141842	3
8	28164	16436.641058046478	2
8	28172	16438.57346942508	3
8	28175	16440.253799887275	4
8	28179	16440.908473281732	3
8	28184	16442.137467008833	4
8	28186	16442.19764489223	3
8	28193	16444.247881332673	2
8	28195	16444.577963785867	1
8	28200	16446.04802154964	0
8	28219	16455.029906027768	1
8	28224	16456.537598262731	2
8	28226	16457.067279810585	1
8	28231	16458.68659210121	0
8	28265	16471.31741985977	1
8	28266	16473.082869535468	0
8	28302	16486.240653415885	1
8	28305	16487.465251956996	2
8	28306	16489.942978878134	1
8	28309	16490.231284257818	0
8	28344	16501.506434748136	1
8	28346	16501.9094201673	0
8	28442	16579.627550987432	1
8	28444	16581.277907055292	0
8	28515	16627.367879807442	1
8	28519	16628.059098350803	0
8	29076	16998.999692085233	1
8	29078	16999.776951119484	0
8	29365	17179.354133463593	1
8	29369	17181.345685028763	0
8	29375	17183.025743042259	1
8	29376	17183.304638670094	0
8	29382	17184.658341388672	1
8	29386	17188.18460988456	0
8	29457	17226.678596256488	1
8	29459	17227.075511968211	0
8	29462	17228.285243777559	1
8	29464	17229.472692766969	0
8	29667	17328.524497126239	1
8	29669	17329.076741078977	0
8	29677	17332.029668139118	1
8	29679	17332.188928885677	0
8	29742	17361.792268346926	1
8	29744	17362.065572019522	0
8	30105	17655.11009809371	1
8	30109	17656.792886552151	0
8	30119	17659.066782845414	1
8	30123	17660.227125146536	0
8	30625	18010.977441501228	1
8	30629	18014.435984411283	0
8	30812	18115.868315623329	1
8	30814	18116.470621225595	0
8	30822	18118.989454137535	1
8	30824	18119.467175302494	0
8	30933	18158.025005972964	1
8	30935	18158.45571675962	0
8	30950	18163.34395638222	1
8	30955	18165.061023340018	0
8	30958	18166.605374648814	1
8	30961	18167.89426306842	2
8	30963	18168.132864180297	1
8	30965	18168.178600152728	0
8	31089	18274.809439041995	1
8	31091	18275.320625364758	0
8	31217	18334.424045941765	1
8	31220	18335.729885074283	2
8	31221	18335.908127743623	1
8	31224	18336.657556614889	0
8	31255	18347.160697993695	1
8	31256	18348.843599228028	0
8	31305	18371.876605741172	1
8	31306	18373.510079930128	0
8	31357	18402.230271968234	1
8	31359	18403.500048865105	0
8	31667	18604.078679192697	1
8	31670	18605.975463771892	2
8	31671	18606.813980138571	1
8	31674	18607.190056650257	0
8	31680	18609.662583743491	1
8	31681	18611.463630910306	0
8	32137	18988.928015387014	1
8	32139	18990.113113394396	0
8	32475	19228.30644050774	1
8	32479	19229.169028190949	0
8	32484	19230.740162115232	1
8	32486	19231.698199937535	0
8	32500	19237.578743000948	1
8	32511	19241.248899015993	0
8	32532	19249.264052187184	1
8	32534	19249.336248680258	0
8	32771	19396.32162456959	1
8	32773	19396.348372405488	0
8	32776	19398.256138467784	1
8	32781	19400.240753582948	0
8	32965	19518.196199371442	1
8	32966	19518.464243128513	0
8	32990	19529.714669938604	1
8	32991	19530.704191555344	0
8	33002	19533.965758575574	1
8	33006	19536.431783739084	0
8	33115	19639.159495591982	1
8	33122	19640.888872294719	2
8	33125	19642.143684794786	3
8	33130	19644.480325973712	4
8	33131	19644.682549874315	3
8	33140	19647.589055346715	4
8	33141	19650.652621109445	3
8	33144	19651.149362145973	2
8	33146	19651.153759225974	1
8	33151	19652.407652932905	0
8	33174	19660.686924470435	1
8	33184	19664.839873060923	0
8	33197	19668.902690754677	1
8	33201	19671.624714984353	0
8	33214	19674.991764821652	1
8	33216	19676.290039441736	0
8	33272	19712.974967093306	1
8	33276	19714.643050646006	0
8	33345	19743.893949141295	1
8	33346	19743.936173851599	0
8	33357	19746.84226462375	1
8	33359	19748.108091943497	0
8	34067	20297.426025370026	1
8	34074	20301.987645785838	0
8	34307	20379.073865215331	1
8	34309	20379.101008749577	0
8	34457	20435.371840933128	1
8	34459	20435.657950121183	0
8	34492	20456.412385562506	1
8	34494	20456.790706038416	0
8	34524	20466.664471545515	1
8	34526	20466.67127128047	0
8	34529	20467.94998567838	1
8	34534	20469.577689962125	0
8	34770	20615.689026483008	1
8	34771	20618.109497947803	0
8	34899	20673.359063304147	1
8	34902	20675.189208484	2
8	34906	20675.873904834582	1
8	34913	20676.973661159516	0
8	35012	20734.391518700855	1
8	35014	20734.540145246196	0
8	35017	20736.209743551338	1
8	35019	20736.753345834811	0
8	35022	20737.484104639837	1
8	35024	20737.999995969591	0
8	35289	20901.147328419768	1
8	35291	20901.720633013718	0
8	35304	20906.109723427676	1
8	35306	20907.328502200774	0
8	35309	20907.640426044882	1
8	35311	20908.916161182772	0
8	35314	20909.138582858973	1
8	35316	20909.563037706235	0
8	35319	20911.060325685487	1
8	35324	20912.763019465836	0
8	35460	21006.794866410254	1
8	35464	21009.252817534524	0
8	35630	21113.02456784388	1
8	35631	21113.155435472021	0
8	35645	21118.032540237178	1
8	35646	21119.902638733853	0
8	35755	21166.368783079359	1
8	35760	21169.231056221513	2
8	35761	21170.389869926499	1
8	35766	21172.690138039051	0
8	35774	21174.520803652017	1
8	35778	21175.913409040472	0
8	35819	21190.279272841907	1
8	35821	21190.910229962464	0
8	35929	21259.911994436297	1
8	35931	21260.640483757366	0
8	36191	21415.361085541303	1
8	36201	21419.69351610726	0
8	36412	21540.387785272597	1
8	36414	21541.189285832698	0
8	36417	21542.117478018923	1
8	36421	21543.557633866929	0
8	36615	21636.883256798065	1
8	36616	21637.057585525486	0
8	36895	21881.544178003526	1
8	36896	21881.566981089878	0
8	36984	21933.702704042131	1
8	36988	21934.150889791218	0
8	37052	21964.221903007531	1
8	37063	21968.240423581039	0
8	37066	21968.322521489843	1
8	37076	21971.621145071222	0
8	37190	22042.213123436663	1
8	37191	22043.162559512142	0
8	37799	22456.346242171158	1
8	37801	22457.119160589994	0
8	37814	22460.837245412362	1
8	37816	22460.879247476533	0
8	37822	22463.741026586857	1
8	37826	22465.63627683556	0
8	37897	22526.270433229343	1
8	37899	22526.432072828234	0
8	38005	22598.503197868316	1
8	38009	22600.927708460309	0
8	38102	22643.391368350153	1
8	38104	22643.857745079685	0
8	38191	22692.853309971088	1
8	38196	22694.805212420884	0
8	38350	22779.13419033908	1
8	38351	22779.792704990077	0
8	38357	22781.383457009251	1
8	38359	22782.158378154757	0
8	38487	22892.759967384133	1
8	38494	22896.436286873766	0
8	38515	22903.404952548414	1
8	38516	22905.183313905551	0
8	38780	23045.822135262458	1
8	38784	23052.075074036464	0
8	38887	23086.673828869581	1
8	38889	23088.452978267173	0
8	38985	23121.2769437666	1
8	38986	23121.296036236466	0
8	39137	23202.184556547606	1
8	39141	23203.457267964802	0
8	39144	23204.112479657361	1
8	39146	23205.271890888146	0
8	39317	23316.468058925354	1
8	39321	23320.547913770986	0
8	39444	23450.774289041138	1
8	39451	23453.630745137446	0
8	39862	23707.105802012249	1
8	39864	23707.244394308686	0
8	39875	23711.441023529708	1
8	39876	23711.63204267832	0
8	39880	23713.406623183065	1
8	39881	23714.114797546509	0
8	40302	23960.069764467943	1
8	40304	23960.426232981627	0
8	40319	23964.962087065596	1
8	40321	23966.449673864673	0
8	40444	24027.380524457447	1
8	40446	24027.957363333152	0
8	40449	24029.055149511821	1
8	40458	24031.147619690109	0
8	40461	24032.607451357148	1
8	40463	24033.464789410766	0
8	40477	24039.572461628556	1
8	40479	24040.957220846736	0
8	40502	24048.560398645561	1
8	40504	24049.406985911854	0
8	40592	24113.630716626801	1
8	40594	24114.24270577592	0
8	40637	24129.662880455031	1
8	40639	24129.711993146012	0
8	40702	24193.269439470354	1
8	40706	24194.791507841782	0
8	40900	24293.842888951015	1
8	40901	24296.360685681253	0
8	41217	24474.398684522688	1
8	41219	24475.123561250857	0
8	41227	24477.502917737878	1
8	41229	24477.845054146293	0
8	41462	24650.223034523409	1
8	41469	24652.242286581811	0
8	41492	24659.685715720967	1
8	41494	24660.605073723198	0
8	41557	24682.613468187194	1
8	41574	24689.210142305992	0
8	41705	24795.277924831011	1
8	41706	24795.825707296404	0
8	41759	24813.234924677005	1
8	41766	24815.241613408539	0
8	42095	24968.362506159226	1
8	42096	24970.368256107303	0
8	42105	24973.403067862387	1
8	42109	24974.468076433855	0
8	42222	25052.677960501623	1
8	42224	25054.334376958373	0
8	42257	25064.565205124964	1
8	42261	25064.735899920509	0
8	42459	25127.307276870964	1
8	42461	25128.988619216834	0
8	42665	25268.928620814408	1
8	42666	25269.121827805037	0
8	42740	25297.618131476933	1
8	42741	25297.645300920444	0
8	43180	25645.060988473433	1
8	43181	25645.35464692157	0
8	43217	25657.337453747039	1
8	43220	25659.230022190568	2
8	43221	25661.044388008354	1
8	43225	25662.395438517494	2
8	43226	25662.605282527867	1
8	43229	25662.672571705883	0
8	43462	25787.263306184308	1
8	43464	25788.329007842365	0
8	43467	25788.96141101011	1
8	43471	25793.31644347254	0
8	43502	25803.61849472999	1
8	43505	25804.896698058316	2
8	43506	25805.67735974265	1
8	43509	25807.288633153834	0
8	43527	25812.719489436947	1
8	43529	25813.104291635791	0
8	43532	25814.135275591888	1
8	43535	25815.726511130274	2
8	43544	25819.12063384009	1
8	43551	25821.06067796739	0
8	43761	25940.491513422935	1
8	43763	25941.533728245084	0
8	43781	25947.143508925161	1
8	43783	25947.212041586969	0
8	43816	25958.465035347327	1
8	43818	25960.180760478211	0
8	43821	25960.315029792547	1
8	43823	25960.945500717801	0
8	43937	26034.43447370048	1
8	43939	26035.857341528671	0
8	43980	26096.777413992022	1
8	43981	26097.639890993446	0
8	43985	26099.311748821162	1
8	43986	26100.495549961963	0
8	43997	26103.637948173882	1
8	43999	26103.673008987715	0
8	44017	26110.64174868133	1
8	44024	26112.45259457548	0
8	44035	26116.870932952725	1
8	44036	26119.463729173716	0
8	44095	26142.31107626881	1
8	44096	26143.586160540931	0
8	44362	26301.265520873691	1
8	44364	26302.929956904401	0
8	44595	26537.010000368193	1
8	44596	26545.068082907377	0
8	44665	26589.169733388304	1
8	44666	26590.091647399325	0
8	44730	26635.488046522121	1
8	44731	26637.557445008441	0
8	44817	26692.114484820996	1
8	44819	26692.751934892526	0
8	44854	26703.503888777752	1
8	44861	26705.535633463765	0
8	45082	26888.326901344813	1
8	45084	26889.317926434151	0
8	45120	26901.912945401242	1
8	45121	26902.393440245857	0
8	45125	26904.040931499024	1
8	45126	26905.939013402727	0
8	45230	26965.98522800115	1
8	45236	26967.77103292565	0
8	45340	27036.574659381353	1
8	45344	27041.243846028435	0
8	45422	27078.374931356813	1
8	45424	27078.653056516108	0
8	45537	27134.450479204035	1
8	45539	27134.508611140821	0
8	45640	27184.004499572455	1
8	45641	27184.105304196694	0
8	46095	27494.080959227445	1
8	46096	27494.273767507119	0
8	46105	27497.746990304483	1
8	46106	27498.211774815005	0
8	46110	27499.959916909543	1
8	46111	27500.289992534535	0
8	46117	27501.670154787207	1
8	46119	27502.677469567554	0
8	46122	27503.430854490193	1
8	46124	27504.980941671362	0
8	46630	27786.304550548284	1
8	46631	27787.017927603796	0
8	46724	27850.139913397064	1
8	46726	27850.885644897141	0
8	46748	27856.751072237422	1
8	46750	27856.924912705344	0
8	47025	28078.543391358945	1
8	47026	28079.996651082155	0
8	47086	28108.794692689807	1
8	47090	28109.434014827952	0
8	47187	28141.91059315416	1
8	47191	28146.533396592826	0
8	47197	28148.089168466345	1
8	47199	28148.287460805174	0
8	47262	28169.586961282842	1
8	47264	28170.061357740838	0
8	47292	28179.210919258795	1
8	47294	28179.261262015981	0
8	47327	28190.766099332884	1
8	47330	28192.320621179842	2
8	47331	28192.820308585349	1
8	47334	28192.889196950015	0
8	47805	28512.443636132827	1
8	47806	28513.776404982128	0
8	48049	28696.150150403725	1
8	48051	28696.814230700318	0
8	48131	28745.123514005346	1
8	48137	28747.948986785477	2
8	48139	28749.045050440735	1
8	48144	28751.252437665931	0
8	48171	28758.07391071803	1
8	48174	28759.387997628553	2
8	48176	28760.72339982789	1
8	48182	28762.5497467406	2
8	48184	28762.799258121991	1
8	48187	28763.953296400038	2
8	48193	28765.339826858708	1
8	48201	28768.087178604463	0
8	48335	28808.843453570445	1
8	48337	28809.726708448831	0
8	48353	28814.927281324742	1
8	48355	28815.079671267312	0
8	48363	28817.995845044767	1
8	48365	28818.173710399412	0
8	48368	28819.459131333036	1
8	48373	28820.906644367231	2
8	48375	28821.705783053204	1
8	48377	28822.177630355117	0
8	48449	28859.948270753235	1
8	48463	28864.727716926837	0
8	48545	28895.608014562655	1
8	48551	28900.468688359988	0
8	48674	28955.078189231392	1
8	48676	28955.765044350985	0
8	48686	28958.085144965288	1
8	48691	28960.665488084709	0
8	48697	28962.736327771593	1
8	48699	28962.985754166567	0
8	49007	29178.365639618311	1
8	49009	29178.670834086789	0
8	49058	29192.323810490493	1
8	49061	29194.126955397886	2
8	49063	29194.161102703857	1
8	49065	29195.247190228993	0
8	49068	29195.981146843818	1
8	49073	29198.47842290788	0
8	49116	29212.006490274605	1
8	49118	29212.523381827667	0
8	49156	29224.744001391803	1
8	49158	29225.237439049961	0
8	49174	29230.714042427292	1
8	49176	29231.13160137653	0
8	49182	29233.572909141419	1
8	49184	29234.209181511549	0
8	49465	29422.741797779696	1
8	49466	29422.996486145149	0
8	49560	29480.063705592794	1
8	49564	29481.094301484225	0
8	49650	29637.310716729029	1
8	49651	29638.186126030325	0
8	49734	29670.769963969911	1
8	49741	29672.40310065976	2
8	49743	29672.54302051082	1
8	49745	29672.558279773817	0
8	49899	29759.245828274364	1
8	49901	29760.567569612003	0
8	49904	29760.687183502974	1
8	49911	29762.621708183766	0
8	49914	29763.7158973991	1
8	49916	29763.846029172286	0
9	20167	12000.661855625442	1
9	20169	12002.225431354951	0
9	20175	12004.158644755638	1
9	20176	12005.0060509047	0
9	20820	12421.939888701282	1
9	20824	12422.643466253124	0
9	20832	12425.48263552864	1
9	20836	12432.251825085333	0
9	21347	12693.83832006379	1
9	21351	12697.305123031494	0
9	22017	13083.248882880134	1
9	22019	13083.961070697086	0
9	22375	13354.88289398704	1
9	22376	13355.260665293415	0
9	22380	13356.657491960009	1
9	22381	13358.793048793789	0
9	22744	13551.360414382992	1
9	22754	13555.993181805551	0
9	24240	14297.308445189548	1
9	24246	14298.489336018684	0
9	25987	15201.224841115567	1
9	25991	15202.519635972522	0
9	25994	15202.895499391983	1
9	26003	15205.596763079788	0
9	26006	15206.641006610485	1
9	26008	15206.77789584194	0
9	26021	15211.787550615834	1
9	26025	15212.443607030252	0
9	26140	15252.36810106741	1
9	26144	15257.045725604089	0
9	26160	15261.806278407449	1
9	26161	15263.988871483894	0
9	26167	15265.980708983743	1
9	26169	15267.193633262337	0
9	30302	17773.633147078711	1
9	30306	17774.603681024862	0
9	34022	20282.640029934125	1
9	34024	20283.073342531013	0
9	36065	21349.16106815615	1
9	36069	21350.980213694976	0
9	36140	21398.889680257852	1
9	36141	21400.684424491997	0
9	36145	21402.285042988534	1
9	36149	21403.217901078527	0
9	36960	21926.870885040705	1
9	36964	21927.552599992628	0
9	38452	22879.787624811635	1
9	38456	22883.539976751635	0
9	41869	24846.650211360853	1
9	41871	24847.078486839138	0
9	41922	24864.697867054854	1
9	41924	24865.6564329256	0
9	42150	24999.0338179019	1
9	42151	25006.373987730339	0
9	43375	25742.115789275861	1
9	43379	25743.815766338439	0
9	45570	27145.580469878032	1
9	45571	27149.075479045277	0
9	46347	27640.570257292098	1
9	46354	27642.325794436923	0
9	47377	28206.813588573296	1
9	47381	28208.882573903109	0
9	48647	28947.136674793746	1
9	48649	28947.919244011142	0
9	48664	28951.896429306019	1
9	48666	28952.615386074699	0
9	48862	29107.214832634768	1
9	48869	29109.626350742098	0
9	48877	29112.118024752642	1
9	48881	29114.075056498579	0

