version 2
run Third_exit_2-7-20191017-13:44:12-1995
attr configname Third_exit_2
attr datetime 20191017-13:44:12
attr experiment Third_exit_2
attr inifile omnetpp.ini
attr iterationvars ""
attr iterationvarsf ""
attr measurement ""
attr network ResponseTimeNetwork
attr processid 1995
attr repetition 7
attr replication #7
attr resultdir results
attr runnumber 7
attr seedset 7
param **.Source.interArrivalTime exponential(6s)
param **.jobPriority bernoulli(0.8)
param **.PS.serviceTimeU1 "uniform(1.2s, 2.0s)"
param **.PS.serviceTimeU2 "uniform(2.4s, 2.8s)"
param **.SS1.serviceTime exponential(1.4s)
param **.SS2.serviceTime exponential(2s)
param **.PS.exitProbability bernoulli(0.2)

vector 0 ResponseTimeNetwork.SS1 queueLength:vector ETV
attr interpolationmode sample-hold
attr title "queue length, vector"
vector 1 ResponseTimeNetwork.SS2 queueLength:vector ETV
attr interpolationmode sample-hold
attr title "queue length, vector"
vector 2 ResponseTimeNetwork.QueueU1 queueLength:vector ETV
attr interpolationmode sample-hold
attr title "queue length, vector"
vector 3 ResponseTimeNetwork.QueueU2 queueLength:vector ETV
attr interpolationmode sample-hold
attr title "queue length, vector"
vector 4 ResponseTimeNetwork.sink lifeTimeU1:vector ETV
attr interpolationmode none
attr title "lifetime of arrived jobs U1, vector"
attr unit s
vector 5 ResponseTimeNetwork.sink lifeTime:vector ETV
attr interpolationmode none
attr title "lifetime of arrived jobs, vector"
attr unit s
vector 6 ResponseTimeNetwork.sink lifeTimeU2:vector ETV
attr interpolationmode none
attr title "lifetime of arrived jobs U2, vector"
attr unit s
0	0	0	0
0	1575	1519.857226549635	1
0	1576	1520.714824223225	0
0	3215	3077.606707050415	1
0	3216	3078.141634197989	0
0	3265	3110.152452915956	1
0	3266	3110.218469817219	0
0	3825	3616.399331708113	1
0	3826	3617.669336149963	0
0	6060	5658.060283506865	1
0	6061	5660.34654635238	0
0	8305	7704.118603112818	1
0	8306	7704.250385459406	0
0	8720	8248.981714020453	1
0	8721	8249.068606433606	0
0	8815	8294.460272884572	1
0	8820	8298.403863579488	2
0	8821	8299.072397256309	1
0	8824	8299.086225821703	0
0	9080	8535.469030824497	1
0	9086	8537.719998217833	0
0	11425	10694.301754475212	1
0	11429	10694.645190463848	0
0	11515	10746.27553531156	1
0	11516	10746.826622316647	0
0	12157	11353.788938341759	1
0	12159	11353.850813046526	0
0	12765	11842.484850077891	1
0	12766	11843.111561543438	0
0	15632	14646.914263359894	1
0	15634	14647.831241697342	0
0	15790	14784.06417186731	1
0	15791	14785.643667515569	0
0	16507	15401.616806499009	1
0	16509	15402.98774068217	0
0	17765	16771.437271222859	1
0	17770	16773.823754016278	2
0	17771	16777.866408337469	1
0	17779	16779.81817757922	0
0	17782	16780.637841336618	1
0	17784	16781.656625019961	0
0	17799	16785.295434682447	1
0	17801	16785.783491523442	0
0	17804	16786.660265312533	1
0	17814	16790.805308672429	0
0	17817	16791.527320879142	1
0	17819	16792.600672711884	0
0	17822	16792.871877649057	1
0	17824	16793.780695531992	0
0	17839	16798.030948169905	1
0	17844	16800.396116136439	0
0	17867	16809.519745783598	1
0	17869	16810.737090934074	0
0	17955	16867.751236558942	1
0	17956	16868.470877215191	0
0	20017	18701.605517006531	1
0	20019	18702.357247555233	0
0	20905	19551.763893376386	1
0	20906	19552.127072050852	0
0	20910	19553.470015339983	1
0	20911	19554.150477247625	0
0	21395	20054.870992419388	1
0	21396	20056.130820061295	0
0	22975	21408.5972850444	1
0	22976	21410.488020014726	0
0	24105	22405.889821116319	1
0	24106	22408.18658913478	0
0	24750	23035.591344178588	1
0	24751	23035.609666234787	0
0	26394	24773.513200575254	1
0	26396	24774.055512651261	0
0	26440	24796.313828038442	1
0	26441	24798.785876812373	0
0	28152	26393.917710131788	1
0	28159	26396.259708543144	0
0	29219	27360.752694451815	1
0	29230	27363.612370080531	0
0	29233	27364.56260694564	1
0	29235	27365.168071477271	0
0	29241	27368.082720763987	1
0	29254	27372.824199601998	0
0	29855	27891.816270788635	1
0	29856	27892.096501519073	0
0	30022	28000.415726401145	1
0	30024	28000.462474845173	0
1	0	0	0
1	18482	17273.126021001045	1
1	18489	17274.879026391846	0
1	18627	17392.88442700262	1
1	18631	17395.253349978327	0
1	20560	19243.536045263426	1
1	20561	19243.652510724012	0
1	30140	28082.08784582649	1
1	30144	28082.820670459715	0
2	0	0	0
2	20	27.73868535271	1
2	21	28.729752572169	0
2	55	52.265993140094	1
2	56	52.381655574364	0
2	65	55.048252485563	1
2	66	55.832996442129	0
2	100	87.87721266328	1
2	101	88.003774717023	0
2	145	130.375759298847	1
2	147	131.060046591038	2
2	148	131.562475572224	1
2	151	133.319403941254	0
2	175	152.220555317719	1
2	176	152.848576189842	0
2	190	174.724346543029	1
2	191	175.758104751453	0
2	210	186.288270423866	1
2	211	186.734646574998	0
2	215	188.078339568247	1
2	216	188.55456687569	0
2	305	284.783076888679	1
2	306	285.560488070737	0
2	315	291.522422962371	1
2	316	291.660088450703	0
2	325	294.7744282584	1
2	327	294.979953706589	2
2	328	295.38460989496	1
2	331	297.002682775951	0
2	370	339.151710137068	1
2	371	339.300227492862	0
2	380	343.155783854997	1
2	381	344.087561787915	0
2	390	350.231850491015	1
2	391	350.478914237145	0
2	400	354.607980459094	1
2	401	354.669432181968	0
2	405	355.475156359955	1
2	406	355.878864810719	0
2	450	419.205135087434	1
2	451	420.554756631798	0
2	460	426.746375901266	1
2	461	427.790926783104	0
2	465	427.955919692847	1
2	466	429.136050216239	0
2	470	430.208030428626	1
2	471	430.85642143501	0
2	475	432.444519264692	1
2	476	432.464242627602	0
2	480	433.657006418311	1
2	481	433.81824919818	0
2	500	459.049175640302	1
2	501	459.866580309546	0
2	505	459.870532989452	1
2	506	461.42744319254	0
2	515	463.703820663079	1
2	516	464.230372419967	0
2	555	503.718210629174	1
2	556	504.911823339083	0
2	567	508.431471253952	1
2	568	508.814848582765	0
2	575	510.915324886746	1
2	576	512.472001962123	0
2	585	516.929963744331	1
2	587	517.508400427228	2
2	588	517.840346660389	1
2	591	519.569823257363	0
2	610	542.91487826838	1
2	611	543.08060452165	0
2	630	563.20379203263	1
2	631	563.28611234607	0
2	640	566.590238346731	1
2	641	567.713231141769	0
2	645	567.726497407461	1
2	646	569.130353927889	0
2	655	574.190532214726	1
2	656	574.258185212491	0
2	670	587.949760402399	1
2	671	589.537112392731	0
2	690	624.327121786688	1
2	692	625.442786748479	2
2	693	625.789004964926	1
2	696	627.690230688438	0
2	715	638.025076848923	1
2	716	638.312713160029	0
2	730	647.236615758418	1
2	731	647.977129820491	0
2	755	687.146835780313	1
2	756	687.848772005406	0
2	760	689.086078138077	1
2	761	689.177732008737	0
2	780	717.887175197302	1
2	781	718.501340118185	0
2	865	815.973505836684	1
2	866	816.968005767046	0
2	875	820.751483911013	1
2	878	822.292906859939	0
2	910	852.274004539682	1
2	911	852.897495753631	0
2	920	864.806070927405	1
2	921	866.244042376458	0
2	925	866.904361858196	1
2	926	868.031831901736	0
2	935	870.536995930197	1
2	936	872.055808145136	0
2	990	921.160734406037	1
2	991	921.687288703098	0
2	1030	979.37915448822	1
2	1031	979.393054598705	0
2	1040	981.819643012234	1
2	1041	983.211965696798	0
2	1050	995.525557476395	1
2	1051	997.336633749745	0
2	1055	998.357566414241	1
2	1056	999.033152287892	0
2	1060	999.071705572362	1
2	1061	1000.55395911119	0
2	1150	1108.060163035771	1
2	1151	1108.245189702359	0
2	1165	1130.967652106118	1
2	1166	1131.705921099324	0
2	1210	1200.425879866038	1
2	1211	1200.982861395195	0
2	1215	1201.22276248428	1
2	1216	1202.422167547062	0
2	1220	1203.75635311301	1
2	1221	1203.938389166646	0
2	1225	1203.965532747665	1
2	1227	1204.927719460378	2
2	1228	1205.19773930797	1
2	1231	1206.946713285908	0
2	1235	1207.822453250779	1
2	1236	1208.705550596505	0
2	1245	1215.19558993697	1
2	1246	1216.342678621314	0
2	1252	1217.287930109695	1
2	1253	1218.310794375926	0
2	1270	1224.251337724438	1
2	1271	1224.893688374588	0
2	1295	1239.096453249164	1
2	1296	1239.723865826247	0
2	1345	1306.330889963045	1
2	1346	1307.871090811663	0
2	1405	1371.230790044223	1
2	1406	1372.143451241447	0
2	1430	1391.383131418156	1
2	1431	1392.180278591911	0
2	1440	1408.025522512048	1
2	1441	1408.763129972749	0
2	1460	1417.665233887118	1
2	1461	1419.039386699931	0
2	1480	1435.650584321917	1
2	1481	1436.191471864994	0
2	1485	1436.369411152918	1
2	1486	1437.625175287354	0
2	1530	1481.002144637093	1
2	1531	1481.208924802774	0
2	1545	1491.72915945861	1
2	1546	1492.452371582219	0
2	1550	1493.990638634097	1
2	1551	1494.13168146407	0
2	1555	1494.898506287696	1
2	1556	1495.372196287306	0
2	1570	1518.115868985338	1
2	1571	1518.1691712221	0
2	1580	1521.334960264369	1
2	1581	1521.926599108321	0
2	1585	1523.300841273852	1
2	1586	1523.531923135636	0
2	1600	1535.004444255232	1
2	1604	1535.800984919733	2
2	1605	1536.116905119126	1
2	1608	1537.9629451998	0
2	1640	1575.619625863353	1
2	1641	1576.387415191092	0
2	1670	1605.772151145997	1
2	1672	1606.444557468399	2
2	1673	1607.202249586424	1
2	1676	1609.148249219386	0
2	1695	1640.014739101943	1
2	1696	1640.58766428763	0
2	1705	1644.68702782042	1
2	1706	1645.243817777253	0
2	1710	1645.525102268211	1
2	1711	1646.569560382582	0
2	1745	1687.038245614112	1
2	1747	1687.645163420285	2
2	1748	1688.584755933683	1
2	1751	1689.922538165029	0
2	1765	1694.766302872782	1
2	1766	1695.901310886403	0
2	1770	1696.76393901416	1
2	1771	1697.625872305927	0
2	1780	1700.592980463261	1
2	1781	1701.183691048242	0
2	1790	1703.658954254076	1
2	1791	1705.494088129359	0
2	1795	1706.62858054398	1
2	1796	1707.351220831307	0
2	1815	1721.806231916676	1
2	1816	1722.098607950988	0
2	1850	1766.789589918228	1
2	1852	1767.713146892301	2
2	1853	1768.308090322982	1
2	1857	1768.467874353371	2
2	1858	1769.749266174394	1
2	1862	1770.61125258995	2
2	1863	1771.453268343914	1
2	1866	1773.445025322172	0
2	2030	1930.905920100089	1
2	2031	1930.922958423232	0
2	2055	1950.336429745581	1
2	2056	1951.295064769064	0
2	2065	1956.057348534637	1
2	2066	1957.226318225524	0
2	2070	1957.372295299223	1
2	2071	1959.171520140468	0
2	2075	1959.352157766032	1
2	2076	1960.408078955932	0
2	2100	2009.641111199417	1
2	2101	2010.654027092409	0
2	2110	2017.474146659096	1
2	2112	2018.664312965288	2
2	2113	2019.317878225428	1
2	2116	2020.620179958251	0
2	2155	2059.216403783176	1
2	2156	2060.433901765219	0
2	2185	2097.710249068764	1
2	2188	2099.191275968343	0
2	2230	2128.380788860345	1
2	2231	2128.596092227832	0
2	2250	2142.321424428502	1
2	2251	2142.673386214567	0
2	2290	2181.608709200072	1
2	2291	2181.616328591036	0
2	2305	2193.070395734068	1
2	2306	2194.388813349761	0
2	2310	2194.525204102941	1
2	2311	2195.898176231764	0
2	2365	2247.196687535333	1
2	2368	2248.55868039702	0
2	2395	2298.673228063606	1
2	2396	2298.77630799508	0
2	2440	2349.960506033228	1
2	2441	2350.130541721198	0
2	2475	2364.833129909626	1
2	2476	2365.810897973416	0
2	2525	2434.940969278844	1
2	2526	2435.797138455681	0
2	2555	2468.607082188992	1
2	2556	2470.082353433533	0
2	2575	2496.787702973099	1
2	2576	2497.967223850328	0
2	2580	2499.159947557385	1
2	2581	2499.170862885627	0
2	2585	2499.660443174497	1
2	2586	2500.594805437389	0
2	2590	2502.051261834663	1
2	2592	2502.394993972376	2
2	2593	2502.570228552136	1
2	2597	2503.565942473128	2
2	2600	2504.019864683102	1
2	2604	2504.169712197612	2
2	2605	2505.788161839421	1
2	2608	2507.004076086047	0
2	2612	2507.477949622822	1
2	2613	2508.271104781392	0
2	2617	2509.316723616262	1
2	2618	2510.266180669392	0
2	2630	2517.454389798643	1
2	2632	2518.221381440195	2
2	2633	2518.663371023777	1
2	2636	2520.311747784409	0
2	2665	2554.842236664299	1
2	2666	2555.493940069984	0
2	2680	2561.554549793472	1
2	2681	2563.019227310527	0
2	2685	2563.236052277048	1
2	2686	2564.679036967341	0
2	2705	2597.428759617042	1
2	2706	2597.691545139009	0
2	2710	2598.978385304636	1
2	2711	2599.507303181419	0
2	2780	2643.962686950962	1
2	2782	2644.111666577569	2
2	2784	2644.650184344536	3
2	2785	2644.894959518431	2
2	2788	2646.271570839105	1
2	2791	2648.143167673355	0
2	2845	2695.560335633318	1
2	2846	2695.999164837295	0
2	2860	2711.757146432087	1
2	2861	2712.554754298297	0
2	2880	2746.926119400339	1
2	2882	2747.227095141418	2
2	2883	2747.410858610929	1
2	2886	2748.626528103747	0
2	2890	2748.642149325518	1
2	2891	2749.976524013192	0
2	2895	2751.227375897148	1
2	2896	2751.245487712794	0
2	2905	2757.478391584681	1
2	2906	2757.985680173054	0
2	2910	2759.03673484153	1
2	2911	2759.288670113586	0
2	2915	2760.40847729052	1
2	2916	2760.810896348111	0
2	2925	2764.704828776075	1
2	2927	2764.96112478318	2
2	2929	2764.99804581394	3
2	2930	2765.715995476182	2
2	2933	2766.916869081903	1
2	2936	2768.322011675846	0
2	2965	2809.154076190585	1
2	2966	2810.411386848908	0
2	2970	2810.612551596324	1
2	2972	2810.66362634431	2
2	2973	2811.915425041612	1
2	2976	2813.673056735392	0
2	3000	2841.253951711432	1
2	3001	2842.615204688284	0
2	3015	2866.341984068148	1
2	3016	2866.520549316312	0
2	3035	2897.358647995433	1
2	3036	2898.750255066673	0
2	3050	2918.603301224551	1
2	3051	2919.505715943775	0
2	3055	2920.26901110722	1
2	3057	2920.290299477437	2
2	3058	2921.063799439273	1
2	3061	2922.719860918722	0
2	3070	2930.559539873346	1
2	3071	2931.872240852667	0
2	3105	2972.048788800672	1
2	3106	2973.556086656137	0
2	3115	2983.069440684599	1
2	3116	2984.867633188725	0
2	3120	2985.310722949875	1
2	3122	2985.418666858604	2
2	3123	2986.101250211917	1
2	3126	2987.365745889604	0
2	3130	2987.504740860428	1
2	3132	2987.785022256436	2
2	3133	2988.843664748058	1
2	3136	2990.279412283585	0
2	3150	2997.43697153046	1
2	3151	2997.678260903117	0
2	3180	3025.678749051273	1
2	3181	3026.076140740591	0
2	3205	3073.435065761376	1
2	3206	3074.216330823252	0
2	3210	3075.695112048912	1
2	3211	3076.020083603213	0
2	3235	3099.23308931979	1
2	3236	3099.898689896083	0
2	3240	3100.320297848672	1
2	3242	3100.508233846095	2
2	3243	3101.658694460271	1
2	3246	3103.213346886104	0
2	3255	3105.952817376618	1
2	3256	3106.556853380663	0
2	3260	3107.246886967012	1
2	3261	3108.226972938006	0
2	3270	3111.579887483141	1
2	3271	3111.676482761493	0
2	3290	3116.704824723545	1
2	3291	3117.940090202475	0
2	3295	3118.808949875059	1
2	3296	3119.18256650039	0
2	3310	3141.394651311475	1
2	3311	3142.258125733433	0
2	3315	3143.937934633187	1
2	3316	3144.120331247186	0
2	3320	3144.887404569966	1
2	3321	3145.500574240496	0
2	3355	3188.849406609812	1
2	3358	3189.110848511051	0
2	3365	3191.631715231134	1
2	3366	3192.15214104228	0
2	3435	3263.290636609394	1
2	3436	3265.019679871494	0
2	3440	3266.228931705656	1
2	3441	3266.277219841177	0
2	3460	3280.857723436396	1
2	3461	3281.44165619083	0
2	3470	3287.606744415532	1
2	3471	3288.738236562358	0
2	3490	3298.054808456496	1
2	3491	3299.338483596331	0
2	3495	3300.348975308449	1
2	3496	3300.66979649674	0
2	3500	3301.251736283391	1
2	3501	3302.143253288715	0
2	3505	3302.532164210543	1
2	3506	3303.832601752429	0
2	3530	3322.936094054316	1
2	3531	3323.517641632116	0
2	3535	3323.620670351462	1
2	3536	3324.903761723495	0
2	3545	3344.113549929994	1
2	3546	3345.566099063826	0
2	3565	3362.469617579353	1
2	3566	3363.789363747894	0
2	3570	3364.022497149678	1
2	3573	3365.757388827264	0
2	3630	3407.449559122173	1
2	3633	3408.543678851388	0
2	3650	3418.229424968289	1
2	3651	3418.327244011275	0
2	3665	3424.370097904603	1
2	3666	3425.301417018064	0
2	3670	3426.119051827832	1
2	3673	3426.988200902716	0
2	3685	3434.301054380393	1
2	3686	3435.729643874765	0
2	3705	3455.916688586828	1
2	3706	3457.44407080168	0
2	3725	3482.213855988187	1
2	3726	3482.99248703635	0
2	3785	3593.990207092659	1
2	3786	3594.723045585117	0
2	3790	3595.510537795684	1
2	3791	3595.930576540156	0
2	3800	3601.786979363743	1
2	3801	3601.813599854179	0
2	3830	3618.572215424592	1
2	3831	3619.541838575276	0
2	3840	3630.946874762751	1
2	3841	3631.969921620662	0
2	3920	3723.52271887278	1
2	3921	3724.21619403286	0
2	3955	3769.309190202885	1
2	3956	3769.787104367633	0
2	3975	3788.529886196915	1
2	3976	3789.82014022383	0
2	3980	3790.22409446723	1
2	3981	3791.456955096937	0
2	3985	3791.918669949913	1
2	3986	3793.175266240976	0
2	3995	3805.137194303616	1
2	3997	3805.342381851465	2
2	3999	3806.709414550747	3
2	4000	3806.960095252589	2
2	4004	3807.40382967893	3
2	4005	3808.24023628638	2
2	4008	3810.238514671967	1
2	4011	3811.721994784035	0
2	4015	3811.776117747514	1
2	4016	3812.972869961828	0
2	4055	3838.720789032718	1
2	4056	3839.863207414689	0
2	4140	3934.822986673155	1
2	4141	3936.508232264376	0
2	4150	3947.132827689363	1
2	4152	3947.691692802593	2
2	4153	3947.921695607681	1
2	4156	3949.74015898962	0
2	4160	3950.528020551409	1
2	4161	3951.118175029908	0
2	4170	3955.525519401698	1
2	4172	3956.485673874029	2
2	4173	3957.172695746533	1
2	4178	3959.066814050525	0
2	4182	3959.770828312896	1
2	4183	3960.633468249514	0
2	4210	3985.178502563604	1
2	4211	3986.511421700397	0
2	4220	3992.711422825765	1
2	4221	3993.739494811567	0
2	4230	3998.487488186558	1
2	4233	3999.358384013707	0
2	4260	4032.328988283632	1
2	4261	4032.900675792505	0
2	4265	4034.269897372351	1
2	4266	4034.399331115817	0
2	4270	4035.336665442923	1
2	4271	4036.262171303925	0
2	4280	4050.360753937307	1
2	4281	4051.720140379746	0
2	4315	4106.143788397951	1
2	4316	4106.537980515787	0
2	4320	4107.099248029173	1
2	4321	4108.078667303638	0
2	4325	4109.39233030665	1
2	4326	4109.878016524853	0
2	4355	4140.389725031908	1
2	4356	4140.750951616396	0
2	4360	4142.324948147841	1
2	4361	4142.697578469408	0
2	4385	4166.645248969553	1
2	4386	4167.443428012535	0
2	4405	4182.251207084735	1
2	4406	4182.866138562941	0
2	4420	4189.20228115359	1
2	4422	4189.22568652522	2
2	4424	4190.020230766343	3
2	4425	4191.19140385695	2
2	4429	4192.139241089772	3
2	4430	4192.642070269475	2
2	4435	4194.412242921332	1
2	4438	4196.021038891638	0
2	4442	4197.243713293971	1
2	4443	4197.831158058236	0
2	4447	4199.240251354345	1
2	4448	4199.780385869446	0
2	4452	4200.378565605808	1
2	4453	4201.722966890487	0
2	4475	4221.239837000217	1
2	4476	4222.119372083437	0
2	4480	4223.214679859957	1
2	4481	4223.595906096328	0
2	4505	4244.854274127704	1
2	4506	4245.000114576157	0
2	4510	4246.690867233796	1
2	4511	4246.704374452878	0
2	4520	4250.853100554398	1
2	4521	4251.652096965254	0
2	4555	4295.776418705714	1
2	4556	4296.084370217044	0
2	4570	4310.826199596653	1
2	4571	4310.963099715575	0
2	4585	4324.859404766654	1
2	4586	4325.47973607585	0
2	4590	4325.645625221197	1
2	4591	4326.71218435757	0
2	4615	4336.659192367088	1
2	4616	4337.453897949727	0
2	4620	4337.528550482438	1
2	4622	4337.663641938468	2
2	4623	4339.406915033841	1
2	4626	4340.971404024446	0
2	4645	4353.148050625911	1
2	4646	4353.409736758631	0
2	4655	4360.369111250863	1
2	4656	4360.803805349447	0
2	4660	4361.419662797495	1
2	4661	4362.310255444288	0
2	4665	4362.904976897575	1
2	4666	4364.268765979685	0
2	4670	4365.176279694679	1
2	4671	4366.125463528797	0
2	4675	4367.151798239	1
2	4677	4367.345760377695	2
2	4678	4367.986958473973	1
2	4681	4369.908627123065	0
2	4725	4411.217438464492	1
2	4727	4412.476300087956	2
2	4728	4413.005902977962	1
2	4732	4414.185679680411	2
2	4735	4414.884998635877	1
2	4739	4415.449081338355	2
2	4741	4416.488677415743	3
2	4742	4416.648050028388	2
2	4745	4418.492378763784	1
2	4749	4419.649965590098	2
2	4750	4420.447956861113	1
2	4753	4422.285978911561	0
2	4757	4423.081921072389	1
2	4758	4424.146432761592	0
2	4780	4446.888625563275	1
2	4781	4447.537260741791	0
2	4870	4559.110470937108	1
2	4871	4559.156857853524	0
2	4875	4559.236877047534	1
2	4878	4560.984799776554	0
2	4885	4562.909172290489	1
2	4886	4563.580930705883	0
2	4892	4564.943057724816	1
2	4893	4565.366282621168	0
2	4940	4646.631849837405	1
2	4941	4647.474809675363	0
2	4980	4698.818500874994	1
2	4981	4699.740137433648	0
2	5000	4732.618388893562	1
2	5001	4733.890599438084	0
2	5005	4733.924768863525	1
2	5006	4735.261107220223	0
2	5030	4746.453830628438	1
2	5031	4747.008233676596	0
2	5050	4756.785324665757	1
2	5051	4757.867005671815	0
2	5065	4770.442878173941	1
2	5066	4771.338278602156	0
2	5125	4847.56103236778	1
2	5126	4847.789978432419	0
2	5175	4912.241067766912	1
2	5176	4913.638811937216	0
2	5180	4913.675993629008	1
2	5182	4914.490625384041	2
2	5183	4915.202203438859	1
2	5186	4916.955719332639	0
2	5195	4919.638524203945	1
2	5196	4920.817709353932	0
2	5210	4952.0428888232	1
2	5211	4953.223102009112	0
2	5225	4957.774307817529	1
2	5226	4959.016426083725	0
2	5260	4999.433863561916	1
2	5261	5000.005100618911	0
2	5295	5028.875273889342	1
2	5296	5030.310616981131	0
2	5304	5031.557667890924	1
2	5306	5031.957864902341	2
2	5307	5032.018788981517	1
2	5311	5032.322429655329	2
2	5312	5033.974781430778	1
2	5315	5035.300182016832	0
2	5325	5039.705368651384	1
2	5326	5039.945132366647	0
2	5365	5071.038078738407	1
2	5366	5072.446654839364	0
2	5372	5073.841337873753	1
2	5373	5074.058915347529	0
2	5377	5074.895029710988	1
2	5381	5075.596464934095	2
2	5382	5075.690506361534	1
2	5385	5076.960242123825	0
2	5405	5084.472589982768	1
2	5406	5084.861860783933	0
2	5420	5093.771218376989	1
2	5421	5094.221889413197	0
2	5430	5101.013373080853	1
2	5432	5101.784007175326	2
2	5433	5102.31690769731	1
2	5437	5102.363977887089	2
2	5438	5103.770836969418	1
2	5442	5105.091920802554	2
2	5443	5105.291113207256	1
2	5446	5106.628302319487	0
2	5460	5114.74276355861	1
2	5461	5115.154348537915	0
2	5495	5152.977124363293	1
2	5496	5153.240540000134	0
2	5505	5162.742136684283	1
2	5506	5163.861596158593	0
2	5510	5164.63975573569	1
2	5511	5165.341090257912	0
2	5575	5238.095825463695	1
2	5577	5239.124776913373	2
2	5578	5239.400409341716	1
2	5581	5241.30546001412	0
2	5615	5277.270692170611	1
2	5616	5278.282510609958	0
2	5625	5293.335269802587	1
2	5626	5294.011544868664	0
2	5652	5307.694491989559	1
2	5653	5307.720533033895	0
2	5695	5353.652734070943	1
2	5697	5354.166046177939	2
2	5698	5354.518787799882	1
2	5701	5355.954569869409	0
2	5710	5358.94456412969	1
2	5712	5359.446506013641	2
2	5713	5359.573613366978	1
2	5716	5361.30915668563	0
2	5720	5361.490136739343	1
2	5721	5362.647840034152	0
2	5725	5364.341249283018	1
2	5726	5364.560167414258	0
2	5730	5365.274248581592	1
2	5731	5366.008038550737	0
2	5735	5366.547505868304	1
2	5736	5367.663771997328	0
2	5820	5458.695051519824	1
2	5821	5459.61397576846	0
2	5845	5495.633946545423	1
2	5848	5496.538851638875	0
2	5865	5510.40231653841	1
2	5866	5510.771545925973	0
2	5870	5512.04552483084	1
2	5871	5512.097266668877	0
2	5880	5520.210644475295	1
2	5881	5521.232569694356	0
2	5905	5538.671911242654	1
2	5906	5539.881861133976	0
2	5910	5540.075429972336	1
2	5911	5541.845409232481	0
2	5950	5570.547468664454	1
2	5951	5571.121038661832	0
2	5965	5577.697005702853	1
2	5966	5577.735374327737	0
2	5970	5578.671454209542	1
2	5971	5578.974627447116	0
2	5990	5593.048943860391	1
2	5991	5593.101443154865	0
2	6000	5594.661654842972	1
2	6001	5596.623440903252	0
2	6005	5597.733981597728	1
2	6006	5598.390097708268	0
2	6030	5619.346959331252	1
2	6031	5620.386450780437	0
2	6035	5621.980513006223	1
2	6036	5622.118648180247	0
2	6055	5655.26449524972	1
2	6056	5656.791260701435	0
2	6065	5661.221651205599	1
2	6066	5661.802599032507	0
2	6070	5662.235608243379	1
2	6071	5663.008696846948	0
2	6095	5680.309042798233	1
2	6096	5680.651482377568	0
2	6170	5754.47869136053	1
2	6171	5755.601829381037	0
2	6187	5762.358667068369	1
2	6188	5762.887300261409	0
2	6205	5775.613539199777	1
2	6206	5775.922939391875	0
2	6240	5817.014968561327	1
2	6241	5817.162571696931	0
2	6270	5839.84416462837	1
2	6271	5841.269545178408	0
2	6275	5842.071103633964	1
2	6276	5842.787627016301	0
2	6290	5863.226327619535	1
2	6291	5863.426921636714	0
2	6335	5909.101911996761	1
2	6336	5909.201925977502	0
2	6340	5909.757619598843	1
2	6341	5910.886963663246	0
2	6345	5911.927542585334	1
2	6346	5912.302509784881	0
2	6370	5935.588403717519	1
2	6372	5935.857140566832	2
2	6373	5936.950266568942	1
2	6377	5937.340991040041	2
2	6378	5938.670612230731	1
2	6381	5940.389384318909	0
2	6385	5940.555191763321	1
2	6386	5942.255894361457	0
2	6420	5978.986646670854	1
2	6422	5979.163914278197	2
2	6423	5979.561420452553	1
2	6426	5981.054243849176	0
2	6435	5985.178159610809	1
2	6436	5985.252268168043	0
2	6500	6040.015514943146	1
2	6501	6040.097787319019	0
2	6545	6089.752981306351	1
2	6546	6091.122470206179	0
2	6560	6135.029466378206	1
2	6561	6136.388438433401	0
2	6567	6137.084994441169	1
2	6568	6137.80153253264	0
2	6580	6141.739048401809	1
2	6581	6142.430265702859	0
2	6590	6146.499051007578	1
2	6591	6146.982793943143	0
2	6695	6279.773413240829	1
2	6696	6280.239749808926	0
2	6705	6285.889790413067	1
2	6706	6286.851427805453	0
2	6710	6287.108755473549	1
2	6711	6288.793827256962	0
2	6745	6318.566890948888	1
2	6746	6319.074945442278	0
2	6760	6324.443406495615	1
2	6761	6324.926528509652	0
2	6830	6405.645369678968	1
2	6831	6405.799845146873	0
2	6855	6422.33654819004	1
2	6856	6423.380894947369	0
2	6860	6424.071690601732	1
2	6861	6425.023163091336	0
2	6865	6425.220253703002	1
2	6867	6425.586820129799	2
2	6869	6426.262521742098	3
2	6870	6426.724640738909	2
2	6874	6426.878381716046	3
2	6875	6427.987095064429	2
2	6878	6429.22574327266	1
2	6881	6431.19082925873	0
2	6887	6431.955871148088	1
2	6888	6433.14223920772	0
2	6892	6434.594725356895	1
2	6893	6434.638898902705	0
2	6900	6436.998977204259	1
2	6901	6438.243992076015	0
2	6910	6443.481103646993	1
2	6911	6444.239316325783	0
2	6925	6487.18215033382	1
2	6926	6487.851042933037	0
2	6930	6488.571367202355	1
2	6931	6489.173813265023	0
2	6935	6489.666252693262	1
2	6936	6490.786810427365	0
2	6955	6509.708749884135	1
2	6957	6510.172250893397	2
2	6959	6510.256897577514	3
2	6960	6510.673642092955	2
2	6963	6512.439187122707	1
2	6967	6513.719098833864	2
2	6968	6513.757921953697	1
2	6971	6515.664381878648	0
2	6975	6516.914388020725	1
2	6977	6517.040538250315	2
2	6978	6517.55255822913	1
2	6982	6518.33003777678	2
2	6983	6519.497969248716	1
2	6986	6521.014331311371	0
2	7035	6563.329297043428	1
2	7036	6563.936761279572	0
2	7080	6620.89825517817	1
2	7081	6622.186206484033	0
2	7095	6629.317829054481	1
2	7096	6629.590059535795	0
2	7102	6630.443153203836	1
2	7103	6631.14018858041	0
2	7110	6633.23291192129	1
2	7111	6634.74732892088	0
2	7115	6635.312820806758	1
2	7116	6636.548686629006	0
2	7120	6637.562375598881	1
2	7121	6638.124741957926	0
2	7145	6655.856552894719	1
2	7146	6657.287606381287	0
2	7160	6662.944761324825	1
2	7161	6663.868773726062	0
2	7165	6664.218836912826	1
2	7166	6665.119071557992	0
2	7185	6695.440774647208	1
2	7186	6696.38827880294	0
2	7200	6707.772472253024	1
2	7201	6708.211212041077	0
2	7285	6802.578845998201	1
2	7286	6802.874721292053	0
2	7305	6843.916428805629	1
2	7306	6844.325831127035	0
2	7310	6845.96520320718	1
2	7311	6846.215204822885	0
2	7440	6957.374274717163	1
2	7441	6958.477474160794	0
2	7450	6962.342059031911	1
2	7451	6962.956333470845	0
2	7460	6970.966125001791	1
2	7461	6971.978419691107	0
2	7465	6973.473205520232	1
2	7466	6973.874553642764	0
2	7475	6984.475366616887	1
2	7476	6985.790249244057	0
2	7480	6986.782089843251	1
2	7481	6987.718527213417	0
2	7495	7007.215675900614	1
2	7496	7007.826974230228	0
2	7515	7021.030499949251	1
2	7516	7022.154142978499	0
2	7525	7026.289440740957	1
2	7526	7026.392771320865	0
2	7530	7026.922586655357	1
2	7531	7027.995001558848	0
2	7565	7068.665071446374	1
2	7566	7069.341346287062	0
2	7570	7069.343215550288	1
2	7572	7069.357323039008	2
2	7573	7070.701427688716	1
2	7576	7072.059862884028	0
2	7600	7086.142046429385	1
2	7601	7087.938549259886	0
2	7685	7177.81834413288	1
2	7686	7178.211080528923	0
2	7695	7184.163156976032	1
2	7696	7184.455206364769	0
2	7705	7190.949599407112	1
2	7706	7191.568275975241	0
2	7765	7261.421354267329	1
2	7766	7262.697878403681	0
2	7810	7311.246163601948	1
2	7811	7311.468638327627	0
2	7815	7311.507986896558	1
2	7816	7313.219276815003	0
2	7840	7354.000485921563	1
2	7841	7355.951628675143	0
2	7850	7358.716500638172	1
2	7851	7359.977075521693	0
2	7860	7361.919994827264	1
2	7861	7363.384119811513	0
2	7930	7444.254212372599	1
2	7931	7444.282816874219	0
2	7935	7444.880364407579	1
2	7936	7445.914096405154	0
2	7975	7484.473660545868	1
2	7976	7484.969787532681	0
2	7980	7485.437311274094	1
2	7981	7486.719024615952	0
2	8005	7502.822293284079	1
2	8006	7503.800553803455	0
2	8015	7507.288570998586	1
2	8016	7508.311349033501	0
2	8025	7511.403322947762	1
2	8026	7511.658684384279	0
2	8045	7522.405043783756	1
2	8046	7523.457053920253	0
2	8050	7525.260259196779	1
2	8051	7525.322114178351	0
2	8060	7528.478503694392	1
2	8061	7528.564018035953	0
2	8075	7534.949374136259	1
2	8076	7535.199411006431	0
2	8082	7536.218566211207	1
2	8084	7536.645087563608	2
2	8085	7537.162101343433	1
2	8089	7538.443904941607	2
2	8091	7538.625549580145	3
2	8092	7538.634290306429	2
2	8095	7540.552276783595	1
2	8098	7542.068460078696	0
2	8115	7547.368465525512	1
2	8116	7548.42811319549	0
2	8130	7552.61615400888	1
2	8131	7553.479313410741	0
2	8165	7592.733234789053	1
2	8166	7592.950281134992	0
2	8190	7616.993940507317	1
2	8191	7617.986672133965	0
2	8235	7670.01143255197	1
2	8236	7671.040586875927	0
2	8250	7683.455073075663	1
2	8251	7684.7803083571	0
2	8257	7685.432169507793	1
2	8258	7686.144054263118	0
2	8262	7686.600077685312	1
2	8263	7687.966156562637	0
2	8267	7688.313543007386	1
2	8268	7689.262825457971	0
2	8272	7689.300641375939	1
2	8275	7690.799992467123	0
2	8279	7691.519160320514	1
2	8280	7692.700909302602	0
2	8295	7700.327708314077	1
2	8296	7700.981400302135	0
2	8300	7701.90301704984	1
2	8301	7702.286261279405	0
2	8310	7704.457463682692	1
2	8311	7705.555085926769	0
2	8375	7797.98148819269	1
2	8376	7799.01313969939	0
2	8415	7842.105734100302	1
2	8416	7843.212609589137	0
2	8420	7844.386641331322	1
2	8421	7844.989934263043	0
2	8440	7854.14368966761	1
2	8441	7855.370327087178	0
2	8535	7968.905047407568	1
2	8536	7969.562299799938	0
2	8555	8060.428607616211	1
2	8556	8061.615776651384	0
2	8635	8183.082152790183	1
2	8636	8183.482921670172	0
2	8640	8183.562106174454	1
2	8641	8185.137921524774	0
2	8660	8205.431296196976	1
2	8662	8205.502461525639	2
2	8663	8206.148784374978	1
2	8666	8207.550868686076	0
2	8670	8208.258149940774	1
2	8671	8208.976977885861	0
2	8680	8214.597940128068	1
2	8681	8214.608625538989	0
2	8700	8241.207988947993	1
2	8702	8241.818014388744	2
2	8703	8242.313056069955	1
2	8706	8244.181729015678	0
2	8710	8244.473831226162	1
2	8711	8245.492101495869	0
2	8715	8246.038648702846	1
2	8716	8247.072691242553	0
2	8725	8249.166717979635	1
2	8726	8250.407624095826	0
2	8730	8250.849346065155	1
2	8732	8251.030948410131	2
2	8733	8251.654569492078	1
2	8736	8253.571083902157	0
2	8745	8256.076719964182	1
2	8746	8256.534865739344	0
2	8775	8282.703319763957	1
2	8776	8282.927734154665	0
2	8780	8282.949765702748	1
2	8781	8284.414673460105	0
2	8785	8284.765472232133	1
2	8787	8285.320726818608	2
2	8788	8285.697536084258	1
2	8791	8286.989701087789	0
2	8795	8287.817429366297	1
2	8796	8288.359273465739	0
2	8800	8288.955417844378	1
2	8802	8289.047651090895	2
2	8803	8289.987209953943	1
2	8807	8290.788584534223	2
2	8808	8291.324464377964	1
2	8811	8292.811842217499	0
2	8825	8299.086225821703	1
2	8827	8300.886683346834	2
2	8828	8300.988404479662	1
2	8831	8302.461099688003	0
2	8835	8303.977669230177	1
2	8836	8304.257266890483	0
2	8845	8315.356395693982	1
2	8846	8316.20808435589	0
2	8860	8322.117827610398	1
2	8861	8323.889335734465	0
2	8910	8375.623286372905	1
2	8911	8375.628522113372	0
2	8955	8424.010219867136	1
2	8956	8424.466445042574	0
2	8960	8425.835564610632	1
2	8962	8425.880000389541	2
2	8963	8426.289089427152	1
2	8966	8427.740729037495	0
2	8970	8428.209713966649	1
2	8971	8429.411115250373	0
2	9005	8457.379823002241	1
2	9007	8457.386423696575	2
2	9008	8458.668750808328	1
2	9012	8459.336468114419	2
2	9013	8460.050531311646	1
2	9016	8461.901100276351	0
2	9020	8462.898228618589	1
2	9021	8463.282797003292	0
2	9075	8533.995971408318	1
2	9076	8534.225161555044	0
2	9090	8537.98598993374	1
2	9091	8539.215586233225	0
2	9150	8590.055041258243	1
2	9151	8590.590444715879	0
2	9165	8610.42778054827	1
2	9166	8611.23732190655	0
2	9170	8611.490391700006	1
2	9171	8612.844946804842	0
2	9175	8614.250092194508	1
2	9176	8614.288205142146	0
2	9180	8614.320007705823	1
2	9181	8615.735373575998	0
2	9225	8649.328818096184	1
2	9226	8650.577848183874	0
2	9232	8651.858462767943	1
2	9233	8652.373162757184	0
2	9240	8655.895461422073	1
2	9241	8655.911775087144	0
2	9250	8665.884865060859	1
2	9251	8666.680087838792	0
2	9265	8675.044163715689	1
2	9266	8675.250408553112	0
2	9270	8675.555064075303	1
2	9271	8676.581041254814	0
2	9290	8691.799964968421	1
2	9291	8692.960676059242	0
2	9325	8746.057703778123	1
2	9326	8746.453158213322	0
2	9335	8750.281945857789	1
2	9336	8751.907113371213	0
2	9345	8755.00347402013	1
2	9347	8755.7855170957	2
2	9348	8755.867090887756	1
2	9351	8757.51823494918	0
2	9365	8764.96881687645	1
2	9367	8765.853128990844	2
2	9368	8766.211008184291	1
2	9371	8768.119445918202	0
2	9415	8812.745571510346	1
2	9416	8813.856621784526	0
2	9437	8843.872606745699	1
2	9438	8844.23158212752	0
2	9490	8915.087381563565	1
2	9492	8915.189293465886	2
2	9493	8915.265785611017	1
2	9496	8916.997912797487	0
2	9500	8917.553004386369	1
2	9502	8918.297621705612	2
2	9503	8918.980108705318	1
2	9506	8920.584857637776	0
2	9540	8956.007458656779	1
2	9542	8957.032470653305	2
2	9544	8957.285406374631	3
2	9545	8957.414646266382	2
2	9548	8959.012215463798	1
2	9553	8960.815618883613	0
2	9557	8960.910911094376	1
2	9559	8962.661608519045	2
2	9561	8962.678856217564	3
2	9562	8962.704340546745	2
2	9565	8964.516821267623	1
2	9568	8966.51465017775	0
2	9572	8967.879682900264	1
2	9576	8968.202246463627	2
2	9577	8968.405035139973	1
2	9581	8968.91566000089	2
2	9583	8969.127714699501	3
2	9584	8970.096158043834	2
2	9588	8970.219289440699	3
2	9589	8971.352395669723	2
2	9592	8973.125389031673	1
2	9595	8974.762553658875	0
2	9602	8976.509087594551	1
2	9604	8978.283285160033	2
2	9605	8978.391041179167	1
2	9608	8979.923261082338	0
2	9612	8980.120609018928	1
2	9613	8981.652051687034	0
2	9630	8993.459328436655	1
2	9631	8994.146507322689	0
2	9645	9001.521756450341	1
2	9646	9002.604353908527	0
2	9670	9031.099068382291	1
2	9671	9031.709960649548	0
2	9680	9034.389494760251	1
2	9681	9034.600983787528	0
2	9685	9034.649766512312	1
2	9687	9035.125795576361	2
2	9689	9035.801093557775	3
2	9690	9036.443054483845	2
2	9694	9037.157876084369	3
2	9695	9038.201871487512	2
2	9698	9039.793519782475	1
2	9701	9041.188081762953	0
2	9725	9072.564807356284	1
2	9726	9073.472674968612	0
2	9765	9104.984556072802	1
2	9766	9105.334203029319	0
2	9775	9112.163752384507	1
2	9776	9113.902029318029	0
2	9790	9122.326882788374	1
2	9791	9122.567172903473	0
2	9805	9144.880273243164	1
2	9806	9145.242862657827	0
2	9830	9186.949917270989	1
2	9831	9188.895006958348	0
2	9835	9189.422057461538	1
2	9836	9190.411481834528	0
2	9840	9191.578600679317	1
2	9841	9192.031461851438	0
2	9850	9193.689192160831	1
2	9851	9195.084505254541	0
2	9860	9217.553112445355	1
2	9861	9217.614875894779	0
2	9865	9217.736364079986	1
2	9867	9218.205159145236	2
2	9870	9219.27726051248	1
2	9874	9219.448877915328	2
2	9875	9220.921930525446	1
2	9878	9222.632844472298	0
2	9885	9224.56002766978	1
2	9886	9225.837489823619	0
2	9905	9230.850407985902	1
2	9906	9232.369585304697	0
2	9925	9240.459993276847	1
2	9926	9240.638039597311	0
2	9930	9240.796564131475	1
2	9932	9241.192480676786	2
2	9933	9242.030948494376	1
2	9936	9243.525977172331	0
2	10005	9282.838014980229	1
2	10006	9283.841810041546	0
2	10065	9354.140657203347	1
2	10066	9355.406380458641	0
2	10115	9391.884020817609	1
2	10116	9392.015211649578	0
2	10120	9393.363650040314	1
2	10121	9393.990022128414	0
2	10170	9443.52729902366	1
2	10172	9443.793680174999	2
2	10173	9444.361449583208	1
2	10177	9444.884422857672	2
2	10178	9445.75726478487	1
2	10181	9446.978790849221	0
2	10185	9446.99330851263	1
2	10187	9447.883982431093	2
2	10188	9448.933483637084	1
2	10191	9450.854278383364	0
2	10220	9501.798328748266	1
2	10221	9503.295344218374	0
2	10235	9556.161745781064	1
2	10236	9557.153659763027	0
2	10255	9563.40652667082	1
2	10256	9564.729585623363	0
2	10270	9573.646358559333	1
2	10272	9574.025195487132	2
2	10274	9574.389830296935	3
2	10275	9575.063861397329	2
2	10278	9576.758653647314	1
2	10282	9578.325122556013	2
2	10284	9578.479575044431	3
2	10285	9578.486858735281	2
2	10288	9580.114188947762	1
2	10291	9581.770742617222	0
2	10295	9581.818259950816	1
2	10296	9583.70263165054	0
2	10355	9667.650561747957	1
2	10356	9668.480903354652	0
2	10375	9677.377985495136	1
2	10376	9678.171390931089	0
2	10385	9683.29036964001	1
2	10386	9683.305825721946	0
2	10410	9692.303684545883	1
2	10411	9692.970034982558	0
2	10415	9694.475672021601	1
2	10416	9694.785572646666	0
2	10420	9694.843577289257	1
2	10421	9696.07851491097	0
2	10425	9696.132900595508	1
2	10426	9697.631537557688	0
2	10445	9724.577650021087	1
2	10446	9725.244873829956	0
2	10450	9725.423480055207	1
2	10452	9726.364751617622	2
2	10453	9726.737370290818	1
2	10456	9728.64389527219	0
2	10550	9842.651678319125	1
2	10551	9843.11815866878	0
2	10585	9880.886001473623	1
2	10586	9881.368302982602	0
2	10595	9883.053623149262	1
2	10596	9884.031888793897	0
2	10615	9897.44190591441	1
2	10616	9898.471789499822	0
2	10620	9898.582203666201	1
2	10621	9899.837590172964	0
2	10640	9932.003990077709	1
2	10641	9933.025409340563	0
2	10645	9933.456539994899	1
2	10646	9934.380792655687	0
2	10660	9954.590194017628	1
2	10661	9955.974845229361	0
2	10680	9981.732251000014	1
2	10681	9982.394298583885	0
2	10695	9986.678473059694	1
2	10696	9988.255102440985	0
2	10705	9991.419344536166	1
2	10706	9991.613428821128	0
2	10710	9992.457841033059	1
2	10712	9992.6162846235	2
2	10713	9993.223286139492	1
2	10716	9994.792062663745	0
2	10720	9995.494258925822	1
2	10721	9996.374629054863	0
2	10727	9997.016711575132	1
2	10728	9998.065092517521	0
2	10732	9998.194543244134	1
2	10734	9999.074577693347	2
2	10735	9999.952506057258	1
2	10739	10000.173245263108	2
2	10740	10001.304291066612	1
2	10745	10002.654231960039	0
2	10749	10003.223356915538	1
2	10750	10004.158912172254	0
2	10757	10005.992968535259	1
2	10758	10007.620201878335	0
2	10767	10009.261018425249	1
2	10768	10010.927454919267	0
2	10785	10017.596311703302	1
2	10786	10018.122803172368	0
2	10805	10025.664626038742	1
2	10806	10025.823284848002	0
2	10855	10110.453812062694	1
2	10856	10111.718429405781	0
2	10887	10129.130127655761	1
2	10888	10129.243933474556	0
2	10910	10138.172968310791	1
2	10911	10138.70942666489	0
2	10915	10139.070954490376	1
2	10916	10140.118656522365	0
2	10920	10140.685321235193	1
2	10921	10142.073369928965	0
2	10945	10178.215747826811	1
2	10946	10179.13146397523	0
2	10990	10229.944685236227	1
2	10991	10231.010802819311	0
2	11020	10295.460972596617	1
2	11021	10297.099639741468	0
2	11030	10303.192927359772	1
2	11031	10303.326268183708	0
2	11045	10331.965519339523	1
2	11046	10333.170408888327	0
2	11070	10358.828554954021	1
2	11071	10359.776695257209	0
2	11090	10375.890468126561	1
2	11091	10376.914277469453	0
2	11095	10377.457435164165	1
2	11098	10378.272427265246	0
2	11135	10413.103535017586	1
2	11136	10414.690970371895	0
2	11145	10428.949140639509	1
2	11146	10429.543395757813	0
2	11170	10459.883110175946	1
2	11171	10460.467407513598	0
2	11230	10529.598394141952	1
2	11231	10530.777199863278	0
2	11245	10536.662191354543	1
2	11246	10537.414400556244	0
2	11250	10537.537067251113	1
2	11251	10539.335328662515	0
2	11265	10560.05076341704	1
2	11266	10560.05215416546	0
2	11275	10564.352518488116	1
2	11277	10565.800740617624	2
2	11278	10565.996071079314	1
2	11283	10567.808783107192	0
2	11315	10608.673771256488	1
2	11317	10609.081565274255	2
2	11318	10609.92931827936	1
2	11322	10610.612198818686	2
2	11323	10611.846668570262	1
2	11326	10613.539188521874	0
2	11350	10639.966552625007	1
2	11351	10640.019905572309	0
2	11405	10682.82569194194	1
2	11406	10683.932916103223	0
2	11430	10694.645190463848	1
2	11432	10695.048165496206	2
2	11434	10695.774091043879	3
2	11435	10695.813492399905	2
2	11439	10696.114316667733	3
2	11440	10697.286842258539	2
2	11444	10698.441578991904	3
2	11445	10699.259133696448	2
2	11449	10700.564536967006	3
2	11450	10701.124906917926	2
2	11454	10701.564013377897	3
2	11455	10702.896914947298	2
2	11459	10703.177322593346	3
2	11460	10704.533335556355	2
2	11463	10705.912018871945	1
2	11467	10706.84553650357	2
2	11468	10707.30558640853	1
2	11471	10708.724503132407	0
2	11505	10742.732154439033	1
2	11506	10743.125958400602	0
2	11510	10744.054363653277	1
2	11511	10744.836626090492	0
2	11520	10747.141099200431	1
2	11523	10748.425873005796	0
2	11530	10750.244086661443	1
2	11531	10751.576327124457	0
2	11535	10753.177246352012	1
2	11536	10753.321191113847	0
2	11540	10753.876793914892	1
2	11541	10754.871850811909	0
2	11565	10771.215729066739	1
2	11566	10771.572789954332	0
2	11585	10782.644144605599	1
2	11586	10782.82925563627	0
2	11617	10823.615320635942	1
2	11618	10825.129025286127	0
2	11630	10829.104063227917	1
2	11631	10829.699031793696	0
2	11655	10854.382910874019	1
2	11656	10854.516507314833	0
2	11670	10885.22810233666	1
2	11671	10885.351945778584	0
2	11705	10922.75915575374	1
2	11706	10922.955065556768	0
2	11715	10942.764104323615	1
2	11716	10942.868828599653	0
2	11720	10943.882243863056	1
2	11722	10944.118475956905	2
2	11723	10944.684266079343	1
2	11727	10946.196573188822	2
2	11728	10946.526574914283	1
2	11731	10948.303356322958	0
2	11740	10952.594378616331	1
2	11741	10952.802110246242	0
2	11910	11192.080346956698	1
2	11911	11193.585125951683	0
2	11917	11195.188330034522	1
2	11918	11195.314815615332	0
2	11930	11202.626820870214	1
2	11931	11202.84432969564	0
2	11935	11203.565141225084	1
2	11936	11204.767779841324	0
2	11940	11204.954403385309	1
2	11942	11204.972051180177	2
2	11943	11206.507722927494	1
2	11946	11207.915470335869	0
2	11965	11224.469410281588	1
2	11967	11225.240999453663	2
2	11968	11225.375680860255	1
2	11971	11226.648647532549	0
2	11975	11226.958879690214	1
2	11976	11228.110753898632	0
2	11980	11228.28522978836	1
2	11982	11228.868152286415	2
2	11983	11230.097952770751	1
2	11986	11231.601907983732	0
2	11990	11231.766558151586	1
2	11991	11232.84627695096	0
2	12005	11243.106449719512	1
2	12007	11243.311413268169	2
2	12008	11243.581780376581	1
2	12011	11245.144122691748	0
2	12015	11245.172412740521	1
2	12016	11246.503387405088	0
2	12035	11283.560530005734	1
2	12036	11283.607307484654	0
2	12052	11293.832539205227	1
2	12053	11293.833223634641	0
2	12060	11296.219611934889	1
2	12061	11296.74514502367	0
2	12075	11311.144487752142	1
2	12076	11311.270580529302	0
2	12080	11311.285091654801	1
2	12081	11312.990424469925	0
2	12090	11323.506790021034	1
2	12091	11323.802370917947	0
2	12095	11323.812608766116	1
2	12097	11324.72675977247	2
2	12098	11325.305562181362	1
2	12102	11326.513286615086	2
2	12103	11327.285848714375	1
2	12106	11329.240488802233	0
2	12110	11329.253919505725	1
2	12111	11330.823105509729	0
2	12115	11331.278986070299	1
2	12116	11332.107943319865	0
2	12130	11343.049009055139	1
2	12131	11344.190632909554	0
2	12135	11345.75170540134	1
2	12136	11346.175420521776	0
2	12145	11349.141881210102	1
2	12147	11350.122695404608	2
2	12148	11350.632058968678	1
2	12152	11351.372670234016	2
2	12153	11352.181665629245	1
2	12156	11353.788938341759	0
2	12160	11353.850813046526	1
2	12162	11354.385720262015	2
2	12163	11355.240400587864	1
2	12166	11356.66356962575	0
2	12175	11359.637179397342	1
2	12176	11361.15402351044	0
2	12180	11361.164172035207	1
2	12181	11362.548639046809	0
2	12195	11371.792394903884	1
2	12196	11372.742231769383	0
2	12252	11460.97827543054	1
2	12253	11461.037759661745	0
2	12257	11462.100393564473	1
2	12258	11462.503776856955	0
2	12280	11473.729005350385	1
2	12281	11474.783156333246	0
2	12305	11502.52250247474	1
2	12306	11503.264424393174	0
2	12315	11507.954165731807	1
2	12316	11508.997553214615	0
2	12330	11512.876940533848	1
2	12331	11513.526140934848	0
2	12345	11524.544409178936	1
2	12347	11525.137727764037	2
2	12348	11526.240516668607	1
2	12351	11527.935967846264	0
2	12400	11573.674439533067	1
2	12401	11574.588619514383	0
2	12410	11578.339138219746	1
2	12411	11579.323603518174	0
2	12465	11622.803441851098	1
2	12466	11623.808776115989	0
2	12470	11625.008548539212	1
2	12471	11625.119174394002	0
2	12485	11634.700895930439	1
2	12486	11635.760424115153	0
2	12490	11636.347533771077	1
2	12491	11637.459786867367	0
2	12540	11692.1757065397	1
2	12541	11692.778060135966	0
2	12545	11692.871466904432	1
2	12546	11694.159967378875	0
2	12555	11697.748919543489	1
2	12556	11697.821045125585	0
2	12670	11787.19049784715	1
2	12672	11787.377698207072	2
2	12673	11787.408686387837	1
2	12676	11789.2681002957	0
2	12680	11789.2920202853	1
2	12683	11790.511216129847	0
2	12690	11793.428548539706	1
2	12693	11793.947279545963	0
2	12700	11795.721382041088	1
2	12701	11797.244325366728	0
2	12710	11801.715928951622	1
2	12711	11801.826422923418	0
2	12725	11812.239530368514	1
2	12727	11812.539345742596	2
2	12728	11813.453086072307	1
2	12731	11814.938352393646	0
2	12735	11816.17633748788	1
2	12736	11816.280197465334	0
2	12750	11837.025457222548	1
2	12751	11837.63670432698	0
2	12760	11840.812165096525	1
2	12761	11841.0551357653	0
2	12770	11844.357113733839	1
2	12771	11844.573384752813	0
2	12775	11846.387233776508	1
2	12776	11846.441087142508	0
2	12820	11893.348772447754	1
2	12821	11893.822632429154	0
2	12855	11937.195157937805	1
2	12856	11937.661818145521	0
2	12870	11968.27378552109	1
2	12871	11968.762508687464	0
2	12900	12009.164626789552	1
2	12902	12010.136008388152	2
2	12903	12010.352454276562	1
2	12907	12011.461829379074	2
2	12908	12011.875356051132	1
2	12912	12013.398670714378	2
2	12913	12013.805832212783	1
2	12917	12015.175492530577	2
2	12918	12015.591090074546	1
2	12921	12016.82719680573	0
2	12940	12034.053947688449	1
2	12942	12035.11974896151	2
2	12943	12035.216202044993	1
2	12946	12036.952426935121	0
2	12955	12039.404152666439	1
2	12956	12040.656041113912	0
2	12980	12068.401849251658	1
2	12981	12069.342419211119	0
2	13065	12152.82309922114	1
2	13066	12153.264674032825	0
2	13085	12169.240383559006	1
2	13086	12169.957313823453	0
2	13090	12170.358109962652	1
2	13091	12171.244959234944	0
2	13095	12171.314916831641	1
2	13096	12172.719163417755	0
2	13105	12176.515790683416	1
2	13106	12177.485221135166	0
2	13155	12233.986251867484	1
2	13156	12234.160862862255	0
2	13165	12241.86175890779	1
2	13166	12243.47841946652	0
2	13200	12276.251783654727	1
2	13201	12276.374970807145	0
2	13210	12280.510614771304	1
2	13211	12281.67325997212	0
2	13230	12289.18209593816	1
2	13231	12290.237030740199	0
2	13240	12294.956978415612	1
2	13241	12296.429594904147	0
2	13245	12297.054304907122	1
2	13246	12298.271994648836	0
2	13250	12299.650525246885	1
2	13251	12300.195073237791	0
2	13255	12300.599943646329	1
2	13256	12301.437018572501	0
2	13260	12302.685177677484	1
2	13261	12303.13604453165	0
2	13290	12346.772767669539	1
2	13291	12346.796727992173	0
2	13375	12426.755193386209	1
2	13378	12427.922378909271	0
2	13385	12430.629247411425	1
2	13386	12431.523932186384	0
2	13390	12431.728320937833	1
2	13392	12432.561527264001	2
2	13393	12433.413011754919	1
2	13397	12433.671812209457	2
2	13398	12435.190505548064	1
2	13403	12437.060139499661	0
2	13430	12460.136592548235	1
2	13431	12461.161974613469	0
2	13455	12483.581902370191	1
2	13456	12485.088593100785	0
2	13460	12486.645367477288	1
2	13461	12487.020355781383	0
2	13475	12496.111070735058	1
2	13476	12497.686658361338	0
2	13485	12501.198095584413	1
2	13486	12501.326156741925	0
2	13580	12601.971735276484	1
2	13582	12603.381695384111	2
2	13583	12603.568438012444	1
2	13586	12605.437140373059	0
2	13625	12642.578781168582	1
2	13626	12642.672255211958	0
2	13660	12671.637496652263	1
2	13661	12673.135550418706	0
2	13710	12738.252457475666	1
2	13711	12738.58536646315	0
2	13715	12739.881078507511	1
2	13716	12740.298827992241	0
2	13810	12848.195063808851	1
2	13812	12848.418340486134	2
2	13813	12849.005365799762	1
2	13816	12850.819499493599	0
2	13840	12880.998002272178	1
2	13841	12882.151119476854	0
2	13850	12885.791616103898	1
2	13851	12886.567829841027	0
2	13855	12887.163492450144	1
2	13856	12887.957719625557	0
2	13860	12887.988738144455	1
2	13862	12888.688857249091	2
2	13863	12889.340322125355	1
2	13866	12890.564282402607	0
2	13885	12908.486512185844	1
2	13886	12909.572746694905	0
2	13890	12910.813483887904	1
2	13891	12911.566943007593	0
2	13915	12951.464928503882	1
2	13916	12952.110975530721	0
2	13930	12961.491262489366	1
2	13931	12961.68125575997	0
2	14035	13116.110054871137	1
2	14036	13117.285473790052	0
2	14060	13154.580824414259	1
2	14061	13155.237920055341	0
2	14130	13234.866532055835	1
2	14131	13235.306583048447	0
2	14200	13318.84742171647	1
2	14201	13320.356254597819	0
2	14245	13379.852965162772	1
2	14246	13381.091911317323	0
2	14277	13398.018111996617	1
2	14278	13398.272760155001	0
2	14295	13404.861189130644	1
2	14296	13405.044583743438	0
2	14315	13419.227426685265	1
2	14316	13419.77054082079	0
2	14325	13424.259967900564	1
2	14326	13425.533154324299	0
2	14330	13425.535181625762	1
2	14331	13426.998669208816	0
2	14335	13427.829524833524	1
2	14336	13428.281921428672	0
2	14360	13450.839328755355	1
2	14361	13451.772960103779	0
2	14370	13457.566959275213	1
2	14371	13457.695942592033	0
2	14395	13487.053731432528	1
2	14397	13487.633533705609	2
2	14398	13488.064398658514	1
2	14401	13489.385381452419	0
2	14405	13490.064419583276	1
2	14406	13491.047574608639	0
2	14450	13543.668115732464	1
2	14452	13544.716905520414	2
2	14453	13545.514521264725	1
2	14456	13546.77636653471	0
2	14460	13546.856901654258	1
2	14461	13548.672007236697	0
2	14510	13604.095180933105	1
2	14512	13604.47798551214	2
2	14513	13604.488691218583	1
2	14516	13605.843702606125	0
2	14525	13610.96536743062	1
2	14526	13612.537667395972	0
2	14540	13618.967857185575	1
2	14541	13619.141254379938	0
2	14570	13641.450420488425	1
2	14571	13642.366243332219	0
2	14680	13745.566365631486	1
2	14681	13746.694005897142	0
2	14715	13783.256990593148	1
2	14716	13784.097887686211	0
2	14725	13786.833814422021	1
2	14726	13787.333203173292	0
2	14730	13787.344125515263	1
2	14731	13789.077956399557	0
2	14750	13817.829279424504	1
2	14752	13818.23797638346	2
2	14755	13818.688984535161	1
2	14758	13819.949995099093	0
2	14830	13902.353849171202	1
2	14831	13904.110820185548	0
2	14845	13909.890035914028	1
2	14846	13910.494163930677	0
2	14955	14052.005329956486	1
2	14956	14053.128266088177	0
2	14965	14055.402317267794	1
2	14966	14055.747788875249	0
2	14975	14058.012371477676	1
2	14976	14058.645949471964	0
2	14980	14059.159702690402	1
2	14983	14060.323140378518	0
2	14987	14060.701672796009	1
2	14988	14061.758885572327	0
2	15000	14065.907260337842	1
2	15001	14066.545613711339	0
2	15005	14066.743899436276	1
2	15006	14068.354525933426	0
2	15070	14164.811445534247	1
2	15071	14164.822758357749	0
2	15100	14217.972913311007	1
2	15101	14219.202762806333	0
2	15115	14232.504067271296	1
2	15116	14233.421026328186	0
2	15135	14246.614534207898	1
2	15136	14247.127571047004	0
2	15145	14253.759090204081	1
2	15146	14255.017450020292	0
2	15155	14263.408504321882	1
2	15156	14263.476068883885	0
2	15160	14264.062042323974	1
2	15161	14264.947278857354	0
2	15170	14269.4459810903	1
2	15171	14271.115116631932	0
2	15180	14276.482916477202	1
2	15181	14277.802694010829	0
2	15185	14278.21689420888	1
2	15186	14279.482609977668	0
2	15245	14361.719628705312	1
2	15247	14362.914303349579	2
2	15248	14363.041789882906	1
2	15251	14364.435430212036	0
2	15260	14366.004432656659	1
2	15261	14367.66334063157	0
2	15265	14368.351682175513	1
2	15267	14368.729316434397	2
2	15268	14368.887758789654	1
2	15271	14370.183539364184	0
2	15295	14403.485972542028	1
2	15296	14404.563013800369	0
2	15300	14406.094642616015	1
2	15301	14406.272915552506	0
2	15305	14407.780785090727	1
2	15306	14408.150361974859	0
2	15310	14409.389649111782	1
2	15311	14409.893016015501	0
2	15315	14410.144654183276	1
2	15316	14411.623469424197	0
2	15320	14412.458239924781	1
2	15321	14413.528147782335	0
2	15335	14419.966652145057	1
2	15336	14420.273531661093	0
2	15340	14420.97157237082	1
2	15341	14422.195783118255	0
2	15355	14431.276101520646	1
2	15356	14432.853093775837	0
2	15360	14434.374095177578	1
2	15361	14434.424908393352	0
2	15375	14438.883354317182	1
2	15376	14439.841808128916	0
2	15380	14441.466418760695	1
2	15381	14441.72512508072	0
2	15385	14442.848556927665	1
2	15386	14443.304143385776	0
2	15395	14445.84421522612	1
2	15396	14446.077052019315	0
2	15405	14456.985673841306	1
2	15407	14457.058163225168	2
2	15408	14458.249000826402	1
2	15412	14458.924046963218	2
2	15413	14460.042300663254	1
2	15416	14461.930213622301	0
2	15420	14462.115453260917	1
2	15421	14463.258919287584	0
2	15435	14486.250810465078	1
2	15436	14487.020423057473	0
2	15475	14524.28443198631	1
2	15476	14524.490363836977	0
2	15505	14537.367326242286	1
2	15507	14537.845334296995	2
2	15508	14538.896051514762	1
2	15512	14540.068370888395	2
2	15513	14540.772537722121	1
2	15516	14542.268582647721	0
2	15525	14546.369964285585	1
2	15526	14546.730784063021	0
2	15535	14560.115282901259	1
2	15536	14561.02978962032	0
2	15555	14585.123811109353	1
2	15556	14585.852950244821	0
2	15570	14606.892514580455	1
2	15571	14608.150080760851	0
2	15620	14643.252678810953	1
2	15621	14644.168747631338	0
2	15625	14645.096324049507	1
2	15626	14645.63926454882	0
2	15630	14645.709752181812	1
2	15631	14646.914263359894	0
2	15635	14647.831241697342	1
2	15637	14648.28949144306	2
2	15638	14648.379465637234	1
2	15641	14649.879930975911	0
2	15710	14726.026213368272	1
2	15711	14726.108999419739	0
2	15715	14727.084637176788	1
2	15716	14727.560316963834	0
2	15730	14736.746579540036	1
2	15731	14737.762525851361	0
2	15735	14737.806142050756	1
2	15736	14739.730163487315	0
2	15750	14752.941344640191	1
2	15751	14753.480998361204	0
2	15795	14786.785402281371	1
2	15796	14787.107777874187	0
2	15820	14813.852066264434	1
2	15821	14814.337698771853	0
2	15825	14815.815706581176	1
2	15826	14816.077762146343	0
2	15830	14816.57134351266	1
2	15831	14817.813428908822	0
2	15860	14860.147482159863	1
2	15861	14860.181944679903	0
2	15875	14875.501426394599	1
2	15876	14875.927043854934	0
2	15895	14887.965000655635	1
2	15896	14888.080624768241	0
2	15905	14895.556699118564	1
2	15907	14896.494699444112	2
2	15908	14896.810887264187	1
2	15911	14898.413677040214	0
2	15915	14898.907764553015	1
2	15916	14900.378003589349	0
2	15925	14903.250845085332	1
2	15926	14903.957242888065	0
2	15975	14941.631143244253	1
2	15976	14943.003672689858	0
2	15985	14945.515281276673	1
2	15986	14946.72546790023	0
2	15995	14951.489352101442	1
2	15996	14951.856942606715	0
2	16025	14989.116618053807	1
2	16026	14990.353700236787	0
2	16055	15017.374425545015	1
2	16056	15018.65012950369	0
2	16075	15027.293316009627	1
2	16077	15027.75491269251	2
2	16078	15028.50657738618	1
2	16082	15029.508358702775	2
2	16083	15029.922106526638	1
2	16087	15031.535635930163	2
2	16088	15031.82575826257	1
2	16091	15033.05576165806	0
2	16175	15112.808967139937	1
2	16176	15113.681757946131	0
2	16180	15113.771829462137	1
2	16182	15114.66332342615	2
2	16185	15115.585840563481	1
2	16189	15115.991824514047	2
2	16190	15117.083125936245	1
2	16194	15117.819100038756	2
2	16197	15118.73992265184	1
2	16200	15120.633854253409	0
2	16204	15121.201443749577	1
2	16205	15122.580055095261	0
2	16212	15124.749204885846	1
2	16213	15125.70204295349	0
2	16222	15127.387323557462	1
2	16223	15128.263941905281	0
2	16265	15167.100046523306	1
2	16266	15168.157441774725	0
2	16270	15168.239024406961	1
2	16273	15170.122959939918	0
2	16277	15170.637643307329	1
2	16278	15171.382697322188	0
2	16295	15178.27645411092	1
2	16297	15178.877704012362	2
2	16298	15179.782581485143	1
2	16302	15181.264861910712	2
2	16303	15181.495039536139	1
2	16308	15183.00332542908	0
2	16312	15183.5810487442	1
2	16313	15184.255166135436	0
2	16317	15185.504417729312	1
2	16318	15186.192419325641	0
2	16335	15192.640095315162	1
2	16336	15194.059846991173	0
2	16390	15321.356967921683	1
2	16392	15321.387806521257	2
2	16393	15321.434767583516	1
2	16397	15322.073931791103	2
2	16399	15322.112467208262	3
2	16400	15322.755615607221	2
2	16403	15324.707616192606	1
2	16406	15326.173737547678	0
2	16410	15327.117782276735	1
2	16411	15328.130920567495	0
2	16415	15328.624009890227	1
2	16416	15330.012171469388	0
2	16430	15334.204553990157	1
2	16431	15335.650692737426	0
2	16480	15377.243717603672	1
2	16481	15378.308042078848	0
2	16500	15398.996700286865	1
2	16501	15399.700858652686	0
2	16505	15400.244755978961	1
2	16506	15401.616806499009	0
2	16510	15402.98774068217	1
2	16511	15403.087796296273	0
2	16515	15404.062404513127	1
2	16516	15404.818597426918	0
2	16520	15405.503068305269	1
2	16521	15406.513752725814	0
2	16555	15486.129932582958	1
2	16556	15486.445957438438	0
2	16565	15506.169468535896	1
2	16566	15507.006294795505	0
2	16575	15512.112468222275	1
2	16576	15513.360389021665	0
2	16625	15562.402768040893	1
2	16626	15563.672523684802	0
2	16630	15563.924304718656	1
2	16631	15565.314100698943	0
2	16635	15565.585993788708	1
2	16636	15567.156956588293	0
2	16645	15575.956060564365	1
2	16647	15576.075826796045	2
2	16648	15576.095514265583	1
2	16651	15577.373716344074	0
2	16655	15578.90397102019	1
2	16656	15579.027010614746	0
2	16740	15671.756517902906	1
2	16741	15672.8352550927	0
2	16755	15683.905541883423	1
2	16758	15685.499167021461	0
2	16762	15686.461087600911	1
2	16763	15687.001759834312	0
2	16767	15687.797710695613	1
2	16768	15688.201890238471	0
2	16800	15732.245946498919	1
2	16801	15732.699086452992	0
2	16805	15734.341531074588	1
2	16806	15734.486349813053	0
2	16835	15783.713220659539	1
2	16836	15785.099053375991	0
2	16860	15805.972133853533	1
2	16861	15806.794542820857	0
2	16870	15822.918165788168	1
2	16871	15823.942587595241	0
2	16885	15831.489954888758	1
2	16887	15832.352591436368	2
2	16888	15833.018684935662	1
2	16892	15833.083289530928	2
2	16893	15835.008104161079	1
2	16896	15836.455882848705	0
2	16905	15842.119205000594	1
2	16906	15842.175699887431	0
2	16920	15849.778006896537	1
2	16921	15850.149507273455	0
2	16945	15891.488361587846	1
2	16946	15893.05656970726	0
2	16995	15946.387681316962	1
2	16996	15946.498470750323	0
2	17060	16015.530257342242	1
2	17061	16016.701856559918	0
2	17065	16017.310097228768	1
2	17066	16018.300054962032	0
2	17070	16019.177563037066	1
2	17071	16019.924711480581	0
2	17075	16020.797963182376	1
2	17076	16021.521176449054	0
2	17080	16021.761690611476	1
2	17081	16022.742826705271	0
2	17115	16056.4044160349	1
2	17116	16057.385493635373	0
2	17125	16067.793187438126	1
2	17126	16068.917474718778	0
2	17130	16069.674100817742	1
2	17131	16070.311201709709	0
2	17135	16070.75626211013	1
2	17136	16071.733364740959	0
2	17172	16094.150504547629	1
2	17173	16094.839369994105	0
2	17220	16168.37374022838	1
2	17221	16168.39357882637	0
2	17225	16168.791480945104	1
2	17226	16170.317240644167	0
2	17230	16170.528590476576	1
2	17231	16171.974020506921	0
2	17235	16173.511385155931	1
2	17236	16173.515973617802	0
2	17240	16174.68794007139	1
2	17241	16174.9509870208	0
2	17245	16175.593614161876	1
2	17247	16176.217994219357	2
2	17248	16176.935753023731	1
2	17251	16178.494807047131	0
2	17285	16224.859602197456	1
2	17286	16225.586744990322	0
2	17330	16296.992984982657	1
2	17331	16298.029146252166	0
2	17360	16334.231798498749	1
2	17361	16334.961726006194	0
2	17365	16335.147969308034	1
2	17366	16336.162012246138	0
2	17370	16337.121730216342	1
2	17371	16337.427369511014	0
2	17385	16355.62141999752	1
2	17386	16356.749926517268	0
2	17405	16380.37576149466	1
2	17406	16380.935927265853	0
2	17420	16388.125694017575	1
2	17421	16388.602661676066	0
2	17450	16453.879578367544	1
2	17451	16454.270698071993	0
2	17470	16461.215195398196	1
2	17471	16462.178153583678	0
2	17475	16462.36752862305	1
2	17478	16463.383547927524	0
2	17482	16463.586647165994	1
2	17483	16464.795748748156	0
2	17490	16466.993937996072	1
2	17491	16467.857836308042	0
2	17555	16546.25065190476	1
2	17556	16546.620134434167	0
2	17560	16546.997793522141	1
2	17561	16547.93502442396	0
2	17565	16548.996586547244	1
2	17566	16549.579699821088	0
2	17575	16552.560997837425	1
2	17576	16553.40645270138	0
2	17650	16654.33992726183	1
2	17651	16655.120686287257	0
2	17685	16691.081893394117	1
2	17686	16691.221302057731	0
2	17735	16759.920596611837	1
2	17736	16760.988255112191	0
2	17745	16765.303040733776	1
2	17747	16765.5461845416	2
2	17748	16765.601366533353	1
2	17751	16767.507717906884	0
2	17755	16768.012515231319	1
2	17756	16768.765001402251	0
2	17760	16768.771932234215	1
2	17761	16769.997928748108	0
2	17775	16778.409059363572	1
2	17776	16779.33657871485	0
2	17780	16779.81817757922	1
2	17781	16780.637841336618	0
2	17785	16781.656625019961	1
2	17787	16781.758070074951	2
2	17788	16782.215353769253	1
2	17792	16782.956650904747	2
2	17793	16783.591758164953	1
2	17797	16785.030359078829	2
2	17798	16785.295434682447	1
2	17802	16785.783491523442	2
2	17803	16786.660265312533	1
2	17807	16787.463173734694	2
2	17808	16788.560703210908	1
2	17811	16790.180632225613	0
2	17815	16790.805308672429	1
2	17816	16791.527320879142	0
2	17820	16792.600672711884	1
2	17821	16792.871877649057	0
2	17825	16793.780695531992	1
2	17826	16794.86928578839	0
2	17830	16794.939268499902	1
2	17832	16795.61908206377	2
2	17834	16795.630148283984	3
2	17835	16796.539636203836	2
2	17838	16798.030948169905	1
2	17841	16799.317095199044	0
2	17845	16800.396116136439	1
2	17846	16801.158172488216	0
2	17860	16806.850433447723	1
2	17861	16808.113421687015	0
2	17865	16808.633817553921	1
2	17866	16809.519745783598	0
2	17870	16810.737090934074	1
2	17871	16811.092837365062	0
2	17880	16813.476796883254	1
2	17881	16813.955199131302	0
2	17890	16817.542780281834	1
2	17891	16817.627400372668	0
2	17895	16818.537288422773	1
2	17896	16819.227222639627	0
2	17900	16821.089540850485	1
2	17901	16821.196429187364	0
2	17945	16864.138823510526	1
2	17946	16864.632320634698	0
2	17950	16865.822331052319	1
2	17951	16866.005418040467	0
2	17962	16869.369115227663	1
2	17963	16869.771846613585	0
2	17975	16873.089141006678	1
2	17977	16874.16754717224	2
2	17978	16874.474804313405	1
2	17981	16876.015040455124	0
2	17995	16883.881589339882	1
2	17996	16885.548662853406	0
2	18020	16908.383878493596	1
2	18022	16908.664735356741	2
2	18023	16909.239122304881	1
2	18026	16910.918909815142	0
2	18040	16924.611187489685	1
2	18041	16925.777293477236	0
2	18045	16927.05606363631	1
2	18046	16927.635737245186	0
2	18090	16969.101891274237	1
2	18091	16969.667525130264	0
2	18110	16980.704389389474	1
2	18111	16981.067234044447	0
2	18115	16982.224533338427	1
2	18116	16983.059050613567	0
2	18135	16998.491061445384	1
2	18136	16999.222081120418	0
2	18140	17000.068578055219	1
2	18141	17000.761631812261	0
2	18170	17030.459320833024	1
2	18171	17030.785067373366	0
2	18175	17031.123347551878	1
2	18176	17032.361597239637	0
2	18185	17037.46800150868	1
2	18186	17037.647596080654	0
2	18190	17039.413364108692	1
2	18191	17039.575560967304	0
2	18290	17105.630665529832	1
2	18291	17106.122741084548	0
2	18355	17164.628515658955	1
2	18356	17165.904023060262	0
2	18380	17196.37531279574	1
2	18381	17197.451210576696	0
2	18385	17197.975616350006	1
2	18387	17199.147978392971	2
2	18388	17199.338118247529	1
2	18391	17201.176108971638	0
2	18400	17207.728887013394	1
2	18401	17208.769954184182	0
2	18420	17231.476157539716	1
2	18421	17232.016544208627	0
2	18450	17262.625386650221	1
2	18454	17263.125524642609	2
2	18455	17263.368559638713	1
2	18459	17263.773133377533	2
2	18460	17264.722262426768	1
2	18463	17266.025629019108	0
2	18467	17266.323437633085	1
2	18470	17267.782018801127	0
2	18480	17271.636335014208	1
2	18481	17273.126021001045	0
2	18540	17316.53479153901	1
2	18541	17317.418705580968	0
2	18555	17343.478480878916	1
2	18556	17344.499756503277	0
2	18560	17344.959133230676	1
2	18562	17345.734819058787	2
2	18563	17346.150928705916	1
2	18567	17346.189615959052	2
2	18568	17347.697250509434	1
2	18571	17349.428375107408	0
2	18580	17351.198839286486	1
2	18581	17352.702658862606	0
2	18585	17353.112341076164	1
2	18586	17354.392859894768	0
2	18625	17391.875935151074	1
2	18626	17392.88442700262	0
2	18635	17396.370992267994	1
2	18636	17396.877837917804	0
2	18640	17396.966687833595	1
2	18645	17398.785165452621	0
2	18665	17413.905580885608	1
2	18666	17414.731199994728	0
2	18690	17447.767738600569	1
2	18691	17448.148092679048	0
2	18710	17457.736024106436	1
2	18712	17458.185646208966	2
2	18713	17458.448776390798	1
2	18716	17460.107621763296	0
2	18740	17473.810140499676	1
2	18741	17475.212646878809	0
2	18750	17479.855555222532	1
2	18751	17480.185286332313	0
2	18770	17493.151635754887	1
2	18771	17493.64077009257	0
2	18775	17494.371974048539	1
2	18776	17495.438260898516	0
2	18800	17514.50194025895	1
2	18801	17516.325105353462	0
2	18840	17572.224489223677	1
2	18841	17573.309432190455	0
2	18850	17589.959836361561	1
2	18851	17591.362679185608	0
2	18870	17603.852588691471	1
2	18871	17604.631121199958	0
2	18880	17609.103462675894	1
2	18881	17610.323533114217	0
2	18895	17616.862666752408	1
2	18896	17618.484268181626	0
2	18920	17630.091830590329	1
2	18921	17631.343891033718	0
2	18995	17697.891818601734	1
2	18996	17698.747830189909	0
2	19015	17718.370634834918	1
2	19016	17718.602090328842	0
2	19020	17719.03800777566	1
2	19021	17720.075111488349	0
2	19040	17730.222103670992	1
2	19041	17730.741991271533	0
2	19045	17731.465552004846	1
2	19047	17732.149406901593	2
2	19048	17732.210621104658	1
2	19051	17733.804631636002	0
2	19065	17739.695924489562	1
2	19066	17740.820986065887	0
2	19070	17741.994262408747	1
2	19071	17742.05500386624	0
2	19090	17767.959411867968	1
2	19091	17768.582084921236	0
2	19125	17809.289668305056	1
2	19126	17810.792705746853	0
2	19130	17812.490068706638	1
2	19131	17812.673521785551	0
2	19200	17889.624301417735	1
2	19201	17890.006593788657	0
2	19240	17952.944981023461	1
2	19241	17953.788298089861	0
2	19380	18145.156325131141	1
2	19381	18145.847893546659	0
2	19390	18149.414813890905	1
2	19391	18150.426530129781	0
2	19420	18162.338294808165	1
2	19421	18163.381256710794	0
2	19435	18173.014116592649	1
2	19436	18174.430171433714	0
2	19440	18175.146248736399	1
2	19441	18176.08709226108	0
2	19445	18176.629449962601	1
2	19446	18177.328772508417	0
2	19470	18197.458144167745	1
2	19471	18199.017560933581	0
2	19535	18248.953530820607	1
2	19536	18249.443561716737	0
2	19580	18281.901581177784	1
2	19581	18282.523500505848	0
2	19585	18282.589419316242	1
2	19586	18284.188879045671	0
2	19590	18284.25945107063	1
2	19591	18285.691840690574	0
2	19620	18301.754453205522	1
2	19621	18303.0509021731	0
2	19670	18353.166273905865	1
2	19671	18354.466986383108	0
2	19715	18390.373155057658	1
2	19716	18391.256836867938	0
2	19720	18392.648718703632	1
2	19721	18393.202626639279	0
2	19725	18393.557782862399	1
2	19727	18393.967839830206	2
2	19728	18394.60081562982	1
2	19731	18396.11212293827	0
2	19735	18396.296299844433	1
2	19736	18397.431596872071	0
2	19765	18426.621992580887	1
2	19766	18427.324106030754	0
2	19775	18433.452684747366	1
2	19776	18435.05264896244	0
2	19810	18480.30169438126	1
2	19811	18480.388528768789	0
2	19820	18489.809261659278	1
2	19821	18490.090394548172	0
2	19865	18547.45820050208	1
2	19868	18548.516553472478	0
2	19875	18550.411525754368	1
2	19876	18551.542409311172	0
2	19910	18600.407211897989	1
2	19911	18600.48977800209	0
2	19925	18606.07149819898	1
2	19926	18606.451250444072	0
2	19930	18607.548108640808	1
2	19931	18608.279096732753	0
2	19940	18612.738758807087	1
2	19941	18612.871061547612	0
2	19950	18615.000163014846	1
2	19951	18616.045660235543	0
2	19970	18660.992950970731	1
2	19971	18661.208291706238	0
2	20000	18695.230180314806	1
2	20002	18696.232297255613	2
2	20003	18696.373150509834	1
2	20007	18697.648312648929	2
2	20009	18697.659431980859	3
2	20010	18698.315717325784	2
2	20013	18699.718967496656	1
2	20016	18701.605517006531	0
2	20020	18702.357247555233	1
2	20023	18702.965993167325	0
2	20027	18704.055088529247	1
2	20028	18704.452529215305	0
2	20092	18756.2845326222	1
2	20093	18756.736114474573	0
2	20155	18848.078701066218	1
2	20156	18848.822259285456	0
2	20185	18874.584414554769	1
2	20186	18875.817397804718	0
2	20192	18877.199146386897	1
2	20193	18877.232168256837	0
2	20250	18938.331618191748	1
2	20251	18939.334863515534	0
2	20260	18945.410429609217	1
2	20261	18945.557575751214	0
2	20285	18962.478565469045	1
2	20286	18963.925113479808	0
2	20290	18964.557871884197	1
2	20291	18965.326563472316	0
2	20295	18965.713890866709	1
2	20297	18966.18732155319	2
2	20298	18966.894650359094	1
2	20301	18968.2223652905	0
2	20305	18968.726565304632	1
2	20307	18968.918154603932	2
2	20308	18970.085558014191	1
2	20311	18971.484538970716	0
2	20350	19022.507223570232	1
2	20351	19024.061902860704	0
2	20360	19027.08678047912	1
2	20361	19028.301583030523	0
2	20395	19072.9964162395	1
2	20396	19074.598140525667	0
2	20410	19080.184433706188	1
2	20411	19080.374938250561	0
2	20505	19186.762052105409	1
2	20506	19188.181217654374	0
2	20525	19203.682945246215	1
2	20526	19204.871679841153	0
2	20530	19205.230204289156	1
2	20532	19205.33414555473	2
2	20533	19206.721300075188	1
2	20537	19208.289969455839	2
2	20538	19208.296690321512	1
2	20541	19209.77157606332	0
2	20585	19256.123588765034	1
2	20586	19257.059779568575	0
2	20610	19289.885626683201	1
2	20611	19290.087219026147	0
2	20620	19291.883904189198	1
2	20621	19292.815618996716	0
2	20650	19324.912035932055	1
2	20651	19325.127142006305	0
2	20655	19325.553396684812	1
2	20656	19326.568733206538	0
2	20725	19410.245092922644	1
2	20728	19411.047955207953	0
2	20732	19412.131745894246	1
2	20733	19412.470163322853	0
2	20762	19424.511714525872	1
2	20763	19424.536160861191	0
2	20800	19464.011413217477	1
2	20801	19465.631687663356	0
2	20810	19471.39191114674	1
2	20811	19471.979777984195	0
2	20820	19476.819719545172	1
2	20821	19477.573089433439	0
2	20850	19502.333924581038	1
2	20851	19503.251422091733	0
2	20865	19509.514401856992	1
2	20866	19510.580911325796	0
2	20870	19510.935633830744	1
2	20872	19511.71905068235	2
2	20873	19512.157643125339	1
2	20876	19513.839429280108	0
2	20880	19513.987634577095	1
2	20882	19515.293587349051	2
2	20883	19515.800131255893	1
2	20886	19517.143438375873	0
2	20915	19554.625816546841	1
2	20916	19555.744689574219	0
2	20920	19556.089477318614	1
2	20921	19556.99847405789	0
2	20925	19557.743393770816	1
2	20926	19558.327570580631	0
2	20935	19561.343066604259	1
2	20937	19562.19166782428	2
2	20938	19562.374669514175	1
2	20941	19563.815423751015	0
2	20945	19565.039352064353	1
2	20946	19565.232031643901	0
2	20995	19628.535476408219	1
2	20996	19628.948098256708	0
2	21010	19634.292901302627	1
2	21012	19635.120436013141	2
2	21013	19635.500058655967	1
2	21018	19636.879109652867	0
2	21070	19701.36338801004	1
2	21071	19702.568263128501	0
2	21110	19746.09542037055	1
2	21111	19746.96942607994	0
2	21115	19747.02374866344	1
2	21116	19748.687189786982	0
2	21160	19789.124127020346	1
2	21161	19790.489878568003	0
2	21165	19791.970499749779	1
2	21166	19792.053806374544	0
2	21180	19801.640882546736	1
2	21181	19802.106883569201	0
2	21195	19818.126913954433	1
2	21196	19818.242020052413	0
2	21250	19890.634996398585	1
2	21252	19891.302061873763	2
2	21253	19892.293681752079	1
2	21256	19894.01252494301	0
2	21295	19928.334352267518	1
2	21296	19929.398532114307	0
2	21325	20008.5837291042	1
2	21327	20009.201451631464	2
2	21328	20009.618603438798	1
2	21331	20011.310839074205	0
2	21335	20011.625535755413	1
2	21336	20013.036309051986	0
2	21345	20018.779656259707	1
2	21346	20019.558858532805	0
2	21390	20051.730078422235	1
2	21391	20053.511801268983	0
2	21400	20056.291464758163	1
2	21401	20057.590108468785	0
2	21410	20059.510520115429	1
2	21411	20060.421935311999	0
2	21430	20076.052322007291	1
2	21431	20076.622405537832	0
2	21440	20087.57798350993	1
2	21442	20088.572499679543	2
2	21443	20089.243009302726	1
2	21447	20089.911516531718	2
2	21448	20090.77185070697	1
2	21451	20092.770022259613	0
2	21475	20120.490739399286	1
2	21476	20121.287240371134	0
2	21485	20136.268330836385	1
2	21486	20137.379187701045	0
2	21510	20153.858930612376	1
2	21513	20155.820211536013	0
2	21520	20157.429495799607	1
2	21521	20159.313560474054	0
2	21540	20175.452226459983	1
2	21541	20176.662806751929	0
2	21570	20197.409998491775	1
2	21571	20197.528586372095	0
2	21575	20198.568207990452	1
2	21576	20199.466093708309	0
2	21595	20237.951171072454	1
2	21596	20237.9640812822	0
2	21650	20283.0407719295	1
2	21651	20284.253364515533	0
2	21665	20296.144923970284	1
2	21666	20297.504102220101	0
2	21680	20304.295464542832	1
2	21681	20305.286989497982	0
2	21695	20333.844817888412	1
2	21697	20334.788834474473	2
2	21698	20335.62645293801	1
2	21701	20337.585255252485	0
2	21745	20410.643347625019	1
2	21746	20410.777368710475	0
2	21759	20422.894478330994	1
2	21760	20423.228521191211	0
2	21777	20428.505076611098	1
2	21778	20429.544262962777	0
2	21782	20429.742698451895	1
2	21786	20430.925694773983	2
2	21787	20431.489823989373	1
2	21790	20432.926994689916	0
2	21794	20433.25597224513	1
2	21795	20434.313223181654	0
2	21802	20435.865100954546	1
2	21803	20437.433498193312	0
2	21820	20443.925390701835	1
2	21821	20444.587470965684	0
2	21850	20465.113023887897	1
2	21851	20466.506011146875	0
2	21930	20537.023384920769	1
2	21932	20537.268188047249	2
2	21934	20537.631985527394	3
2	21935	20538.492363471735	2
2	21939	20539.287168310608	3
2	21940	20539.885285360191	2
2	21943	20541.488067260023	1
2	21946	20542.944063482445	0
2	21950	20544.548290497126	1
2	21951	20544.743408104789	0
2	21955	20546.115089399819	1
2	21956	20546.450447283324	0
2	21975	20552.644232217303	1
2	21976	20553.653669404604	0
2	21985	20557.763055044789	1
2	21986	20559.027628829434	0
2	22027	20600.425526285427	1
2	22028	20601.443494830146	0
2	22045	20625.467368883337	1
2	22046	20626.860282124652	0
2	22065	20646.295073370333	1
2	22066	20648.163315746077	0
2	22090	20682.162498331796	1
2	22091	20683.76255336628	0
2	22145	20745.048378781542	1
2	22146	20746.02839036597	0
2	22150	20746.670843444949	1
2	22152	20746.777644589234	2
2	22153	20747.645328024906	1
2	22157	20748.449557661834	2
2	22158	20749.461535115112	1
2	22162	20749.620595160701	2
2	22164	20750.585329161446	3
2	22166	20751.290914040112	4
2	22167	20751.445210822616	3
2	22173	20752.224774684149	4
2	22175	20753.321129841263	5
2	22176	20753.323117963914	4
2	22180	20753.757251640416	5
2	22181	20755.010498504844	4
2	22186	20756.315247932394	3
2	22190	20756.776753492529	4
2	22191	20758.306008882207	3
2	22194	20759.644236670007	2
2	22198	20759.704097976469	3
2	22199	20761.611514598635	2
2	22202	20762.940390022603	1
2	22205	20764.662096531821	0
2	22212	20766.569877362884	1
2	22213	20768.066203642954	0
2	22220	20769.93538227731	1
2	22221	20771.126569920165	0
2	22232	20774.715650309218	1
2	22233	20775.284208651502	0
2	22275	20818.098124116685	1
2	22276	20818.944210439478	0
2	22280	20819.018930183035	1
2	22281	20820.262498404388	0
2	22295	20826.68691142634	1
2	22297	20827.255814048168	2
2	22298	20827.600411575102	1
2	22301	20829.27961992845	0
2	22330	20866.230783349065	1
2	22331	20867.929742806937	0
2	22340	20873.935715210019	1
2	22341	20874.568019445301	0
2	22380	20915.070883034047	1
2	22381	20915.533783797156	0
2	22385	20916.642884066433	1
2	22386	20916.859849395398	0
2	22410	20935.532784243652	1
2	22411	20937.277175392105	0
2	22475	21005.193232047597	1
2	22476	21006.745694157124	0
2	22520	21058.056941283782	1
2	22521	21059.054278864768	0
2	22545	21082.838199536333	1
2	22546	21083.602195101958	0
2	22560	21100.971190835577	1
2	22561	21101.49691543116	0
2	22570	21104.177843301193	1
2	22571	21105.263809565827	0
2	22575	21105.29547440049	1
2	22576	21106.68492563162	0
2	22585	21123.257132772053	1
2	22586	21124.124595078243	0
2	22605	21142.203020211358	1
2	22606	21142.601207903653	0
2	22620	21147.644896681925	1
2	22621	21147.778111352935	0
2	22635	21154.374404033557	1
2	22636	21154.626409257716	0
2	22645	21156.703640007311	1
2	22648	21158.186185497461	0
2	22655	21160.983819867498	1
2	22656	21161.783981876677	0
2	22670	21168.391066456867	1
2	22671	21168.673282821041	0
2	22675	21169.182268130162	1
2	22676	21170.229390986946	0
2	22699	21180.413791096393	1
2	22700	21180.925867974454	0
2	22704	21181.870208042413	1
2	22705	21182.640181608939	0
2	22725	21193.173424381301	1
2	22726	21194.601504289858	0
2	22730	21195.442308519053	1
2	22731	21196.154381055139	0
2	22735	21197.245135464014	1
2	22736	21197.429217661858	0
2	22740	21197.55622085312	1
2	22743	21198.78711729081	0
2	22760	21206.393770777426	1
2	22761	21207.709022639141	0
2	22770	21214.2914146359	1
2	22771	21215.90157249822	0
2	22785	21224.204527712916	1
2	22786	21225.53249187229	0
2	22800	21238.037302453042	1
2	22801	21239.290602247007	0
2	22830	21271.671099542576	1
2	22831	21272.85126279481	0
2	22840	21281.553782601978	1
2	22841	21281.872055854672	0
2	22850	21285.327709433038	1
2	22851	21285.516505602856	0
2	22885	21312.551798948195	1
2	22886	21313.881086143276	0
2	22895	21322.705433211941	1
2	22896	21323.451125559105	0
2	22955	21400.038513286853	1
2	22956	21401.265572901695	0
2	22960	21401.376295835546	1
2	22961	21403.049849776245	0
2	22965	21404.893958684164	1
2	22966	21404.918256222337	0
2	22980	21411.742448545988	1
2	22981	21412.435187707618	0
2	22985	21412.511841777451	1
2	22986	21414.207435535416	0
2	23025	21476.889650252975	1
2	23026	21477.256543010915	0
2	23035	21482.679430635602	1
2	23036	21483.195280804597	0
2	23075	21530.213689904353	1
2	23076	21531.543783896289	0
2	23080	21531.579561715816	1
2	23081	21533.192539834104	0
2	23085	21533.31410596052	1
2	23086	21534.98830657272	0
2	23115	21565.718152250661	1
2	23116	21565.804356344315	0
2	23125	21581.405120917161	1
2	23127	21581.451227360849	2
2	23132	21583.119345377202	1
2	23135	21585.047703977118	0
2	23142	21587.509387690376	1
2	23144	21587.837486094362	2
2	23145	21587.874673026244	1
2	23148	21589.581883970837	0
2	23155	21592.174325670643	1
2	23156	21592.908309324834	0
2	23180	21609.682035964392	1
2	23181	21610.402011053628	0
2	23185	21611.442214381735	1
2	23186	21612.024077110915	0
2	23195	21615.137001785153	1
2	23198	21615.858906029673	0
2	23215	21637.304820587847	1
2	23216	21638.089095544804	0
2	23230	21643.394037737357	1
2	23231	21643.856222440795	0
2	23240	21645.822669339554	1
2	23241	21647.54160398856	0
2	23250	21650.178501789638	1
2	23253	21651.470911336622	0
2	23257	21652.726575538628	1
2	23258	21652.882271878726	0
2	23270	21659.602604813809	1
2	23271	21660.535450359323	0
2	23280	21672.355191763691	1
2	23281	21672.439230579958	0
2	23290	21677.145310312819	1
2	23292	21678.096525429275	2
2	23295	21678.30367888283	1
2	23298	21679.531221113689	0
2	23330	21703.669781452049	1
2	23331	21704.409330494256	0
2	23340	21706.468662636434	1
2	23341	21707.51443805948	0
2	23380	21746.594085283868	1
2	23381	21748.343294231295	0
2	23385	21749.000271249353	1
2	23386	21750.126753802485	0
2	23410	21788.880222664841	1
2	23411	21789.894769582575	0
2	23510	21885.592334406307	1
2	23512	21886.290554862676	2
2	23513	21887.215733084236	1
2	23516	21888.920631309938	0
2	23535	21898.00097412662	1
2	23536	21898.042002486204	0
2	23550	21901.007054856906	1
2	23552	21901.902000735654	2
2	23553	21902.746258199405	1
2	23557	21903.245620357571	2
2	23558	21904.206602000821	1
2	23561	21906.197267366577	0
2	23565	21907.395195037044	1
2	23566	21907.847292836573	0
2	23630	21998.494508905551	1
2	23631	21999.888465042801	0
2	23640	22008.632542097588	1
2	23641	22009.243109315066	0
2	23655	22021.052947789254	1
2	23656	22021.301175521602	0
2	23725	22104.813958126024	1
2	23726	22105.862211937309	0
2	23740	22116.472955793026	1
2	23741	22116.950414139485	0
2	23800	22184.27147016348	1
2	23803	22185.872242381697	0
2	23832	22199.149151960154	1
2	23833	22200.165434158225	0
2	23837	22202.004114835571	1
2	23838	22202.153842200529	0
2	23845	22203.587303122985	1
2	23846	22205.410115632232	0
2	23860	22216.120047309527	1
2	23861	22216.789499854407	0
2	23885	22234.314656367164	1
2	23886	22234.340002217549	0
2	23890	22234.770238642263	1
2	23891	22235.828180396217	0
2	23920	22252.68837924189	1
2	23921	22253.385384417048	0
2	23925	22254.474398587937	1
2	23926	22254.700624782129	0
2	23975	22302.602394896774	1
2	23976	22303.581605359108	0
2	23985	22320.457442758121	1
2	23986	22322.062980927224	0
2	24020	22373.328147652216	1
2	24022	22373.933941993113	2
2	24024	22374.138657431774	3
2	24025	22374.172086762775	2
2	24029	22374.27559070316	3
2	24032	22376.11594914547	2
2	24036	22377.131200088281	3
2	24037	22377.52009389079	2
2	24040	22379.063472989712	1
2	24046	22380.455034865912	2
2	24047	22380.639702974212	1
2	24050	22382.625319879454	0
2	24059	22384.736135794272	1
2	24060	22385.707061923806	0
2	24069	22387.188190462902	1
2	24070	22389.083798476261	0
2	24074	22389.269848966215	1
2	24075	22390.884822709811	0
2	24100	22403.052245891458	1
2	24101	22404.229622702366	0
2	24185	22513.196815846585	1
2	24186	22514.219491397722	0
[...]
6	16975	15921.981120015864	1.297321168333
6	16980	15925.874268310326	1.470589893684
6	17025	15960.647590364788	1.455294194445
6	17030	15964.449639280599	11.854182424756
6	17050	16009.805071805221	1.255667311139
6	17062	16016.701856559918	1.847147169895
6	17185	16104.060008662958	13.824267288779
6	17210	16119.728388636285	7.567149521848
6	17215	16145.696563309637	1.952896443382
6	17260	16187.718823399467	1.460078193247
6	17380	16342.443518965606	1.715823863819
6	17395	16367.287330852454	1.486847629771
6	17435	16423.275030529469	1.303861691989
6	17452	16454.270698071993	1.708223359659
6	17492	16467.857836308042	5.049567581466
6	17535	16520.548853701252	1.389137189649
6	17540	16526.77722485454	1.470304906927
6	17600	16590.991520356041	1.238450259715
6	17687	16691.221302057731	2.825385735086
6	17695	16701.462854567691	1.448747604713
6	17730	16752.912614579967	1.521994598024
6	17915	16827.716265238009	13.507537505577
6	17940	16862.697561164607	1.948550401069
6	17972	16872.904875904246	3.735625210416
6	17979	16874.474804313405	3.377543439635
6	18042	16925.777293477236	1.476576357707
6	18150	17004.27481497207	6.928973468982
6	18212	17046.151319242705	4.40020257766
6	18217	17047.416074372519	2.582005149408
6	18225	17050.906476683606	3.08985898987
6	18230	17052.442176521348	9.391770991025
6	18250	17065.664366620292	1.659733705409
6	18255	17067.740650093093	1.839761437662
6	18260	17070.112047937067	9.21759476317
6	18285	17102.272681204035	1.709519626014
6	18302	17108.899543233776	2.623702176706
6	18305	17110.369226212801	2.891905560865
6	18315	17119.631308873861	1.987078480981
6	18440	17253.871380891445	1.630502014607
6	18497	17278.457262603123	15.757412728219
6	18500	17279.704773848433	12.201682820142
6	18505	17282.630097975194	8.453888591923
6	18520	17290.443038390183	1.388135711662
6	18542	17317.418705580968	1.666992616701
6	18582	17352.702658862606	3.15167025111
6	18615	17384.498001607617	1.798321651953
6	18637	17396.877837917804	6.933720178205
6	18657	17404.216848313658	13.634510164957
6	18660	17405.478856017849	8.457177142566
6	18692	17448.148092679048	5.445760014409
6	18752	17480.185286332313	1.816516355611
6	18795	17514.022329216588	1.694807000272
6	18815	17533.218577319684	1.642793294974
6	18830	17565.730374463495	1.26178460028
6	18835	17571.403742754654	1.866868120618
6	18865	17596.75261240751	1.486212928996
6	18890	17614.145841041432	1.676674908772
6	18910	17626.471067821935	1.610685907028
6	18922	17631.343891033718	3.566689592593
6	18970	17677.267938557736	1.695600615442
6	19080	17745.779773815594	2.570932543669
6	19105	17787.75686335811	1.876923036948
6	19115	17790.551420820169	1.223931903765
6	19170	17868.067437886553	1.205353456736
6	19202	17890.006593788657	2.166464717092
6	19215	17902.881845356098	1.300742586143
6	19250	17957.882505967808	5.987055762766
6	19260	17979.491805592858	3.985975687671
6	19355	18125.388664415648	1.658512856998
6	19382	18145.847893546659	5.868091788156
6	19405	18155.462439745964	2.196801448664
6	19422	18163.381256710794	2.278515860441
6	19465	18191.230172589778	3.008025970652
6	19510	18222.576278534504	4.085802700698
6	19530	18241.332472641815	3.029437196753
6	19565	18275.170601053377	1.605548762285
6	19582	18282.523500505848	14.899383460441
6	19622	18303.0509021731	2.01608991953
6	19635	18314.796467162694	1.879168627225
6	19655	18337.860650299694	1.861759113148
6	19685	18366.409799399942	2.550363824999
6	19710	18388.527604466241	1.44164134264
6	19790	18444.12927041941	1.666679027863
6	19877	18551.542409311172	3.108510196705
6	19885	18556.571837805102	1.343323108181
6	19905	18592.763645731895	2.042069673173
6	19920	18604.826002836162	5.6511646757
6	19960	18619.828431119571	1.45750457719
6	19972	18661.208291706238	1.934806211293
6	19980	18673.337943287545	1.772347222269
6	19990	18688.724548928619	1.28031697236
6	20004	18696.373150509834	2.613020637459
6	20035	18707.373584827832	4.441912700889
6	20057	18721.853710872169	1.50009111464
6	20060	18723.271362053651	2.836892364345
6	20065	18725.338655303143	1.90557060577
6	20105	18763.662891285336	7.590008770886
6	20115	18774.515324039279	2.152896329644
6	20165	18858.55072376051	1.376009854674
6	20200	18880.650267473023	12.193871034101
6	20235	18915.889033986712	7.352184584272
6	20252	18939.334863515534	1.223916500434
6	20280	18962.193765946048	1.456111065485
6	20345	19021.735724161425	10.277238110121
6	20352	19024.061902860704	1.688856520317
6	20362	19028.301583030523	1.936951412633
6	20380	19060.995008695665	1.63605406601
6	20412	19080.374938250561	2.796842789523
6	20435	19102.833106891988	1.979673931003
6	20440	19118.579504463444	1.80807170663
6	20445	19120.746990294586	1.91600837037
6	20455	19135.211358063895	1.363682126626
6	20465	19153.18946347236	2.110545624878
6	20567	19245.641350901667	5.659979345353
6	20575	19250.032224210284	8.931060792859
6	20580	19253.055240382818	1.384508451074
6	20622	19292.815618996716	1.914289079936
6	20710	19372.18041541469	1.792392243259
6	20729	19411.047955207953	1.511805548705
6	20745	19418.090803748629	7.708901512665
6	20764	19424.536160861191	3.569046449904
6	20770	19427.619672196035	7.738471489149
6	20790	19442.592190289845	3.56764885083
6	20795	19448.254075891993	1.642263374664
6	20802	19465.631687663356	1.694671314396
6	20822	19477.573089433439	1.483109070919
6	20867	19510.580911325796	3.469736002335
6	20975	19595.954028364019	1.872277923301
6	20980	19598.334079266751	1.543182779662
6	21027	19640.678883971615	7.250599069377
6	21030	19641.939413079029	2.01843813843
6	21095	19721.49071648256	1.832552118041
6	21225	19861.938578411184	2.044639207093
6	21297	19929.398532114307	2.280206871473
6	21305	19938.669852488967	1.710544317216
6	21310	19946.669101609209	1.291601544991
6	21355	20031.249604336879	1.483944627084
6	21412	20060.421935311999	1.369125056826
6	21432	20076.622405537832	1.568748602457
6	21514	20155.820211536013	1.996488269791
6	21522	20159.313560474054	4.345849807561
6	21542	20176.662806751929	2.369961875551
6	21585	20212.296243537894	1.40260956306
6	21622	20268.133393130739	6.464651910583
6	21625	20269.899950091828	2.262937285775
6	21652	20284.253364515533	1.690120991506
6	21699	20335.62645293801	1.800875453092
6	21761	20423.228521191211	1.789144656807
6	21767	20426.38727293338	4.61076234875
6	21804	20437.433498193312	14.677698169885
6	21812	20441.173461511534	10.60693331926
6	21815	20442.420703994472	3.565272586171
6	21852	20466.506011146875	1.497057080828
6	21870	20478.140354402197	2.147288573707
6	21895	20497.471080301405	3.144055574085
6	21995	20572.437174291051	1.965442209318
6	22024	20600.23981412971	1.468886046857
6	22029	20601.443494830146	2.208855362675
6	22035	20605.31259233249	5.315790580824
6	22092	20683.76255336628	5.659619862559
6	22102	20687.445954231738	2.962244522362
6	22105	20689.383380610316	3.74478057749
6	22115	20704.193599827167	1.553963690624
6	22132	20733.778716843958	1.315651987307
6	22140	20736.504073533236	3.638950803775
6	22214	20768.066203642954	16.530594421035
6	22222	20771.126569920165	15.359673637554
6	22240	20778.763210063857	4.671139580356
6	22245	20785.733398280629	1.363555300422
6	22320	20841.847584408561	3.174880102818
6	22325	20856.933388394937	1.82925667353
6	22360	20893.784085578266	2.215054036754
6	22375	20900.435774202528	2.661804774049
6	22400	20930.292245053262	3.735196286098
6	22412	20937.277175392105	1.766535133496
6	22420	20941.905985043423	1.696669857763
6	22485	21012.96806699176	1.271115901135
6	22505	21039.318385538499	3.385109998202
6	22510	21048.628421178502	1.626134125516
6	22517	21057.367935187612	1.419824665971
6	22522	21059.054278864768	1.722123463301
6	22540	21070.064900471381	7.705361999
6	22595	21127.362896153865	3.118122300203
6	22630	21151.527011929989	5.490097220795
6	22657	21161.783981876677	8.808092403501
6	22701	21180.925867974454	1.894460474327
6	22712	21186.092481237346	6.395666042248
6	22727	21194.601504289858	14.811939642825
6	22750	21201.571705831528	3.415740344802
6	22780	21218.798228131225	13.73033666053
6	22810	21253.796897577666	1.222896008566
6	22860	21288.870672764365	2.543265370753
6	22880	21310.980648657762	1.575355928019
6	23000	21428.893441289055	7.710444136682
6	23027	21477.256543010915	1.957578186877
6	23055	21503.251311790771	1.788491918147
6	23065	21520.641398464935	1.347803413682
6	23102	21543.533721279497	1.860444185138
6	23105	21544.919399262923	2.598882887175
6	23133	21583.119345377202	1.841321163438
6	23146	21587.874673026244	5.525617908179
6	23157	21592.908309324834	10.190150146385
6	23205	21618.982567745955	3.691385687585
6	23232	21643.856222440795	2.748815676143
6	23265	21656.33535313823	5.917208006808
6	23272	21660.535450359323	1.404792464152
6	23307	21682.804505275897	4.590981034099
6	23310	21684.689399551003	2.338968811101
6	23320	21698.421940193822	1.484975072183
6	23342	21707.51443805948	6.178639429489
6	23355	21728.694184243407	1.436301916279
6	23365	21733.703398068831	3.346665701158
6	23465	21839.264130907826	1.922978061438
6	23545	21900.697223077667	11.257000060026
6	23580	21924.413786101263	1.40450067129
6	23585	21926.328263174739	1.516718611494
6	23610	21964.023123254412	1.221166372299
6	23665	22031.607589622711	1.536051833257
6	23705	22086.763933062023	2.134491109264
6	23727	22105.862211937309	3.62492803516
6	23742	22116.950414139485	1.674049280018
6	23804	22185.872242381697	1.982080865449
6	23812	22189.117939409701	4.391994897947
6	23815	22190.669347425824	2.160926292452
6	23855	22208.736717756333	9.816995703887
6	23880	22231.530459626419	4.501053706469
6	23922	22253.385384417048	1.304756631888
6	23945	22268.289026234766	1.958987719566
6	23960	22275.726949225725	5.286784983054
6	23965	22277.456943888813	5.299238720997
6	23987	22322.062980927224	1.796072586626
6	24061	22385.707061923806	10.862709879562
6	24071	22389.083798476261	9.763041354664
6	24082	22394.513908854079	10.391640136981
6	24085	22396.394583300639	9.745646712527
6	24155	22493.098975264486	1.53335942328
6	24187	22514.219491397722	1.456546565704
6	24222	22553.865508751816	1.486039279401
6	24250	22593.278367865291	1.317744623311
6	24316	22667.887294777503	1.945064377971
6	24340	22700.216011746062	1.552711594291
6	24367	22740.011658648153	1.510597593337
6	24375	22744.138023692901	4.901310006402
6	24390	22750.515668630507	4.317543037235
6	24415	22766.48001931314	1.637339280696
6	24425	22773.865369277231	1.318844268657
6	24485	22821.733529487428	1.479873742908
6	24642	22940.696929205327	5.607787997863
6	24769	23053.094960309632	1.812667636201
6	24815	23114.579668005192	1.657470700331
6	24837	23130.00369880854	1.85574931372
6	24844	23131.925400850389	2.280027775058
6	25005	23307.380419823513	1.812528694794
6	25015	23323.655555648943	2.325573366818
6	25022	23326.909974271763	1.786968917772
6	25072	23411.398381483015	3.336543762435
6	25075	23413.137083093841	1.853583422253
6	25085	23426.485639648685	1.782556127571
6	25100	23438.234055516351	1.818491478078
6	25105	23445.660568603813	1.454786829092
6	25150	23502.619374367099	1.270487809926
6	25185	23526.189895394777	1.65342695415
6	25200	23540.277936674062	6.446157367623
6	25260	23629.729328893753	1.32063107118
6	25320	23680.113222067671	1.361386080272
6	25345	23695.073623959346	2.188214947871
6	25385	23734.543693251598	1.461577597447
6	25390	23740.784845235752	1.24066221416
6	25395	23747.557709684773	1.315138340741
6	25415	23765.083113809485	1.774685173668
6	25447	23780.323038309765	9.841028648105
6	25580	23888.368309307012	1.2117584344
6	25587	23890.17507397992	1.737967140973
6	25605	23932.11612454802	1.576631833054
6	25685	24040.12618350179	1.682901806571
6	25745	24087.653089471547	6.881719748498
6	25805	24163.134901376017	1.541753198206
6	25865	24259.666548611789	4.139005380795
6	25895	24291.757488081122	1.27639655415
6	25915	24315.708977770873	1.538954734018
6	25935	24332.894405491838	1.738663704321
6	25952	24341.771364306263	3.734055518258
6	25965	24350.756274669401	1.284068243764
6	25990	24393.588094206614	1.455554146133
6	26035	24424.329665869389	1.510055250674
6	26130	24509.937126181092	1.812099856138
6	26135	24514.945467838824	1.902060245909
6	26145	24519.947714916031	1.378917595744
6	26195	24547.852350422843	1.27280241847
6	26205	24560.990263388754	19.00895063224
6	26280	24676.874540914826	2.992410885451
6	26340	24735.77928173468	5.47925310369
6	26350	24744.928786033113	12.730143976672
6	26360	24752.466629558656	3.410701614071
6	26365	24755.38380116161	1.578156987764
6	26415	24781.579060906871	9.912557033471
6	26490	24846.921701086437	1.856720353741
6	26535	24906.87188305313	1.783472268283
6	26540	24914.145016598453	1.738953435048
6	26547	24922.191056177307	1.878119954094
6	26562	24926.739355219442	3.373268464546
6	26585	24935.631454036868	5.776355665826
6	26625	24957.401391205981	8.917247618611
6	26647	24969.824205059883	1.669676434807
6	26695	25000.961453590541	1.840279115364
6	26720	25025.077135104986	3.670440803572
6	26785	25098.653813523299	1.371764208004
6	26830	25135.421323147484	1.974793150166
6	26840	25142.104341278814	2.896349534773
6	26855	25161.085749367439	1.551312823966
6	26940	25233.526840797928	6.048149755039
6	27002	25288.868175957218	15.928181703772
6	27025	25302.290387201109	2.005015372704
6	27035	25313.691728065632	1.298774692975
6	27082	25352.21521986456	3.187746727981
6	27257	25560.41348328079	2.715225275954
6	27300	25616.013432848711	5.209790515903
6	27320	25638.272337386877	1.527353054285
6	27330	25646.512312489989	3.833580745043
6	27357	25683.840099783013	1.782777365111
6	27362	25685.242081544133	2.846092834466
6	27377	25703.721259906552	1.817323988862
6	27430	25740.527294993835	3.684195818721
6	27435	25752.365870824668	1.368266614899
6	27560	25897.247447965382	1.441718387604
6	27565	25904.472301691399	1.485015808977
6	27595	25939.923075019668	2.055965376819
6	27652	25995.83661133435	1.451846056432
6	27655	25997.145060579781	1.403130659112
6	27669	26005.250277260918	1.480666440725
6	27675	26008.264369113784	3.841808934378
6	27700	26035.084408920365	3.572641671576
6	27730	26059.61807239988	3.184530480502
6	27810	26098.068341813879	1.484014284424
6	27820	26109.186682952377	1.509590302035
6	27845	26147.280936118039	3.676422469188
6	27877	26189.352432835562	3.454004423003
6	27895	26210.879999278963	2.929940364551
6	27970	26294.193335663482	1.645292872004
6	28032	26328.534303686022	10.068225784558
6	28062	26338.065080064162	6.154081846634
6	28067	26339.88806790132	8.556539278459
6	28072	26341.435760287753	1.92747347481
6	28140	26390.129143599795	12.487434053113
6	28185	26404.640998401689	2.247424691176
6	28209	26417.871036872546	1.41364193155
6	28215	26421.102157303037	4.045468636345
6	28232	26430.100428894876	3.019382548858
6	28239	26431.511032945818	2.458924401441
6	28267	26451.081140451513	1.348223559
6	28317	26506.936311337578	1.657928553782
6	28405	26572.608964124117	1.662710340694
6	28510	26675.970597484583	2.078037397405
6	28517	26678.213862219509	1.705279611982
6	28522	26680.153755738829	2.433846879095
6	28587	26714.077598340419	20.64353480591
6	28595	26716.889259022457	1.657555630253
6	28600	26721.218379603393	1.253785295412
6	28612	26732.303978540934	1.929111978225
6	28625	26742.153285790216	3.655586301379
6	28660	26756.784872938912	5.661663900962
6	28752	26845.709954508879	1.271125602536
6	28777	26863.366467514586	5.545101317209
6	28790	26886.307650385081	1.336982023343
6	28850	26937.426454261133	3.018869827549
6	28860	26946.263942206485	1.314698185027
6	28910	27014.475767474222	1.497238486074
6	28915	27020.768342885921	1.220657099038
6	28940	27064.240941479621	2.74795661227
6	28972	27105.293886744743	9.416059655644
6	29020	27156.359063467867	1.558397974074
6	29032	27180.974978657655	1.528379460949
6	29060	27202.627923939663	3.530393648273
6	29120	27275.643440194206	5.206696320307
6	29125	27280.484405222267	1.68019952178
6	29190	27328.462892083235	1.525809268653
6	29202	27351.621804616956	1.887894180976
6	29257	27374.421673507436	11.00037641976
6	29272	27379.685691983771	1.52397059761
6	29285	27389.232035503836	1.633141638711
6	29315	27427.485285943546	3.445801903962
6	29345	27448.941057230111	1.869947035052
6	29375	27495.673970953921	1.402061625384
6	29410	27525.513199328389	1.7208431134
6	29440	27553.419377549051	4.238554267707
6	29445	27567.92130955077	1.57745050434
6	29450	27577.59888175848	1.72986527551
6	29470	27603.769069059362	2.313950813681
6	29491	27612.58271509165	1.909946050867
6	29505	27618.845891083759	10.073684270578
6	29517	27629.655165798269	1.374024714716
6	29522	27631.131010381929	2.246008716889
6	29560	27653.746283460521	3.2085902498
6	29567	27660.289732583977	1.708287589438
6	29675	27742.362347661655	1.777443178184
6	29732	27772.410914245494	15.828714721941
6	29790	27841.040089200883	1.89555736836
6	29795	27848.95087658142	1.8920752028
6	29800	27856.854143468558	1.268410689011
6	29892	27902.488907512563	8.763468248141
6	29895	27903.933293269674	3.155149769761
6	29915	27913.955152302964	6.313904144757
6	29939	27929.007374127188	4.477104995561
6	29975	27958.900606921605	1.662487020157
6	30050	28010.503869303178	5.149042564613
6	30090	28051.12336843136	2.34418705317
6	30137	28080.801718124529	2.814618597264
6	30161	28087.653106178106	14.957985062729
6	30177	28094.263360217349	9.166320426791
6	30180	28096.119919156977	23.568235252495
6	30232	28123.493650747154	4.706868665495
6	30235	28125.442565897171	18.735736466701
6	30240	28134.360580873979	1.614473098889
6	30255	28150.548159948707	1.265375800431
6	30260	28170.029771351309	1.512033753842
6	30277	28175.997437758508	4.74860643968
6	30305	28196.951249758317	1.964822382666
6	30320	28222.464852957806	1.675788668171
6	30325	28227.211181293718	1.729023217224
6	30332	28233.584584217136	1.523894385993
6	30344	28237.120792541829	3.184266885945
6	30360	28242.768263125969	7.249058318452
6	30377	28258.623384349925	1.280491632223
6	30382	28260.056552155448	2.075381855773
6	30455	28342.160608061661	2.697903108959
6	30500	28397.016220537584	2.487863684463
6	30520	28425.421561201253	1.702541674487
6	30557	28463.764017828353	1.390792666934
6	30574	28470.464169449885	2.079227300529
6	30582	28473.694528116812	4.229031544897
6	30587	28475.452513923836	6.996715383023
6	30627	28531.207035841849	1.437098823488
6	30655	28558.403158971469	1.572572793439
6	30692	28600.510564924562	5.374242131509
6	30710	28626.690659418599	1.87268538028
6	30785	28710.122221819275	1.828941963054
6	30815	28726.707174784328	11.6075745581
6	30830	28738.590919398297	2.59856377229
6	30937	28799.440034281349	3.502083008383
6	30950	28812.766886457811	1.950321123563
6	31060	28913.12487568343	1.251816733368
6	31065	28919.61067092784	1.552605846152
6	31070	28923.049464176765	1.634055751003
6	31114	28959.877343239903	1.628267263435
6	31122	28963.669991230487	5.007433236339
6	31139	28973.305038283119	1.70592583511
6	31145	28976.903134460288	9.016265102737
6	31210	29063.651797635209	1.783514375985
6	31245	29085.382889245394	4.807241089785
6	31267	29103.781471209899	1.419957379811
6	31282	29108.76943524728	2.424792907616
6	31295	29131.199516055292	1.541318098828
6	31345	29169.287993886408	6.043125278649
6	31352	29171.504104284327	1.575014514476
6	31427	29271.660738240851	3.587881337678
6	31440	29283.706009198544	2.174724635781
6	31457	29310.982663652053	5.780770817028
6	31460	29312.466340342661	4.603991175815
6	31480	29323.464482376196	4.899535782165
6	31495	29346.927760576059	2.571811638953
6	31555	29392.61662357386	1.868609823845
6	31580	29412.008407775999	1.833427077059
6	31660	29481.668245838217	8.624039030375
6	31715	29537.128546792837	1.589784708619
6	31760	29576.811287796865	3.16495466941
6	31765	29580.47394472765	1.978379217908
6	31784	29594.617189867423	1.78610607516
6	31817	29628.757865490043	3.883391250876
6	31822	29630.470352926874	2.481450107336
6	31850	29654.486677492248	1.537114300393
6	31855	29659.310119368111	1.430517724901
6	31860	29665.89782664289	1.828468520939
6	31872	29678.515291740647	1.747524823435
6	31945	29754.106845811857	5.30381622238
6	32039	29805.948340194163	7.753294708381
6	32045	29809.069604349372	6.12838951237
6	32115	29910.635812140752	1.675035283156
6	32150	29940.775854831538	1.311468858086

