version 2
run Third_exit_9-17-20191114-11:43:10-9068
attr configname Third_exit_9
attr datetime 20191114-11:43:10
attr experiment Third_exit_9
attr inifile omnetpp.ini
attr iterationvars ""
attr iterationvarsf ""
attr measurement ""
attr network ResponseTimeNetwork
attr processid 9068
attr repetition 17
attr replication #17
attr resultdir results
attr runnumber 17
attr seedset 17
param **.Source.interArrivalTime exponential(6s)
param **.jobPriority bernoulli(0.8)
param **.PS.serviceTimeU1 "uniform(1.2s, 2.0s)"
param **.PS.serviceTimeU2 "uniform(2.4s, 2.8s)"
param **.SS1.serviceTime exponential(1.4s)
param **.SS2.serviceTime exponential(2s)
param **.PS.exitProbability bernoulli(0.9)

vector 0 ResponseTimeNetwork.SS1 queueLength:vector ETV
attr interpolationmode sample-hold
attr title "queue length, vector"
vector 1 ResponseTimeNetwork.QueueU1 queueLength:vector ETV
attr interpolationmode sample-hold
attr title "queue length, vector"
vector 2 ResponseTimeNetwork.QueueU2 queueLength:vector ETV
attr interpolationmode sample-hold
attr title "queue length, vector"
vector 3 ResponseTimeNetwork.sink lifeTimeU1:vector ETV
attr interpolationmode none
attr title "lifetime of arrived jobs U1, vector"
attr unit s
vector 4 ResponseTimeNetwork.sink totalServiceTimeU1:vector ETV
attr interpolationmode none
attr title "the total time spent  by arrived jobs U1, vector"
attr unit s
vector 5 ResponseTimeNetwork.sink lifeTime:vector ETV
attr interpolationmode none
attr title "lifetime of arrived jobs, vector"
attr unit s
vector 6 ResponseTimeNetwork.sink totalServiceTime:vector ETV
attr interpolationmode none
attr title "the total time spent  by arrived jobs, vector"
attr unit s
0	33405	10000.932160286913	1
0	33408	10000.986485087177	2
0	33410	10001.215609415647	1
0	33414	10001.502202540079	0
0	33432	10007.752391335046	1
0	33434	10008.426852431571	0
0	33437	10009.131026416322	1
0	33442	10011.455050146872	0
0	33445	10011.624818668378	1
0	33447	10011.749196981111	0
0	33482	10022.827963215164	1
0	33484	10023.518171001578	0
0	33487	10024.652170374668	1
0	33489	10026.171550952037	0
0	33494	10026.644909450463	1
0	33501	10027.901352424971	2
0	33504	10029.135157868131	3
0	33506	10029.381705171119	2
0	33510	10030.673805742328	1
0	33513	10030.840418512053	2
0	33515	10032.013914122055	1
0	33518	10032.341113296389	2
0	33520	10033.022043415397	1
0	33523	10033.549175708979	2
0	33526	10034.764807314477	3
0	33529	10036.517960159532	4
0	33531	10037.088781723844	3
0	33534	10037.793298301525	4
0	33538	10038.482877897904	3
0	33543	10039.270631624437	4
0	33545	10040.85362752564	3
0	33547	10040.887423094515	2
0	33550	10041.026655532843	3
0	33552	10041.915882903577	2
0	33554	10042.133712066367	1
0	33559	10042.678334948844	2
0	33561	10042.719062432469	1
0	33568	10044.570478197983	2
0	33571	10046.123930298588	3
0	33573	10046.338740202836	2
0	33578	10047.821718925289	3
0	33583	10049.631487039975	2
0	33585	10050.634034887166	1
0	33588	10051.160210082917	2
0	33590	10051.921827895482	1
0	33593	10052.825491694412	2
0	33595	10053.457309523178	1
0	33597	10053.549562356572	0
0	33600	10054.075379145942	1
0	33602	10054.252128755958	0
0	33607	10055.662887861631	1
0	33612	10057.394316971912	2
0	33616	10058.711437999125	1
0	33618	10058.825938992415	0
0	33621	10058.917398114926	1
0	33624	10060.231239044345	2
0	33627	10061.591664211876	3
0	33629	10061.658934158712	2
0	33632	10063.2729730696	3
0	33634	10063.367054971773	2
0	33636	10063.981225186636	1
0	33639	10064.83748798897	2
0	33642	10066.509831273234	3
0	33644	10067.063364686381	2
0	33646	10067.481304333581	1
0	33651	10068.447591294213	2
0	33653	10069.541483588816	1
0	33658	10069.918633035063	2
0	33660	10069.964072285772	1
0	33664	10070.344300849201	0
0	33667	10071.670149572804	1
0	33669	10073.003797668211	0
0	33685	10078.014783442444	1
0	33687	10078.521508258226	0
0	33690	10079.361933468147	1
0	33692	10080.937492920495	0
0	33695	10081.277734091556	1
0	33697	10082.338935769742	0
0	33712	10086.865289045921	1
0	33714	10087.308625732628	0
0	33717	10088.565872019953	1
0	33719	10089.172997531698	0
0	33722	10089.842640689253	1
0	33724	10091.444275637628	0
0	33727	10091.450496895104	1
0	33729	10091.92467346986	0
0	33777	10108.791364583984	1
0	33782	10110.497676653095	2
0	33784	10110.864858730458	1
0	33787	10112.067279018887	2
0	33789	10112.777751699148	1
0	33792	10113.307153236919	2
0	33795	10114.661441575044	3
0	33797	10114.909914189885	2
0	33799	10114.969569377012	1
0	33802	10116.072639585898	2
0	33804	10116.259667535154	1
0	33808	10117.548435828568	0
0	33811	10117.709279808269	1
0	33813	10118.710651717549	0
0	33816	10119.44209409883	1
0	33818	10120.423591772863	0
0	33821	10120.701415516862	1
0	33823	10121.138194697678	0
0	33831	10123.462204955758	1
0	33833	10124.065134546382	0
0	33841	10126.575388750115	1
0	33847	10129.291413752229	2
0	33849	10129.782702567285	1
0	33852	10131.020699790546	2
0	33855	10132.553253999778	3
0	33858	10134.469291248039	4
0	33862	10135.051902033964	3
0	33865	10135.798499825091	4
0	33869	10136.319756786303	3
0	33871	10137.336222056373	2
0	33874	10137.697690880724	3
0	33876	10138.487683431513	2
0	33878	10138.549358799697	1
0	33881	10139.451999366895	2
0	33883	10140.637723638143	1
0	33885	10141.074768260328	0
0	33888	10141.247200546839	1
0	33890	10141.506291062913	0
0	33895	10143.220128632762	1
0	33897	10143.449714188984	0
0	33902	10144.827769983612	1
0	33904	10145.81677624748	0
0	33907	10146.159954821184	1
0	33909	10146.36083875267	0
0	33917	10149.770509584486	1
0	33920	10151.306447812967	2
0	33922	10151.380666210128	1
0	33925	10153.270697703637	2
0	33927	10153.894239236221	1
0	33929	10153.95983398799	0
0	33937	10155.875317142955	1
0	33939	10156.478856136005	0
0	33964	10164.274530646629	1
0	33966	10164.52736757043	0
0	33969	10165.49296120727	1
0	33972	10166.729297809913	2
0	33975	10168.26251964984	3
0	33977	10168.979716794648	2
0	33979	10169.029431435232	1
0	33981	10169.478728122703	0
0	33984	10169.749635710991	1
0	33987	10171.360578501462	2
0	33989	10171.719548067792	1
0	33991	10171.839778945	0
0	34008	10176.605147720366	1
0	34011	10178.2496736188	2
0	34014	10179.574187283083	3
0	34016	10180.671290892429	2
0	34021	10180.998237767122	3
0	34024	10182.303158322587	4
0	34026	10182.68828667896	3
0	34029	10184.185277274675	4
0	34033	10184.277927619483	3
0	34040	10186.386439086678	2
0	34043	10187.073244029894	3
0	34046	10189.061305914126	4
0	34048	10189.372136064863	3
0	34050	10189.590598333022	2
0	34053	10190.394023132004	3
0	34055	10191.03183921085	2
0	34057	10191.128339292135	1
0	34060	10191.595822219603	2
0	34062	10192.133960345571	1
0	34064	10192.149458081836	0
0	34079	10196.034184111149	1
0	34081	10196.195060386595	0
0	34089	10199.340876627394	1
0	34091	10199.799662829491	0
0	34104	10204.500785464287	1
0	34107	10206.13999613566	2
0	34109	10207.96588962432	1
0	34111	10208.03000387437	0
0	34114	10208.10759538436	1
0	34117	10210.105453819089	2
0	34119	10211.338334873391	1
0	34122	10211.588420403988	2
0	34124	10212.330554480717	1
0	34127	10213.14040701823	2
0	34131	10214.420429197465	1
0	34133	10214.55119863381	0
0	34136	10214.823832344317	1
0	34138	10214.940409071235	0
0	34170	10224.005869224907	1
0	34172	10224.987808271242	0
0	34182	10227.656627577037	1
0	34184	10228.183835503366	0
0	34204	10233.864537561365	1
0	34206	10234.150367958529	0
0	34209	10235.44807046713	1
0	34211	10236.260508692194	0
0	34219	10238.8676886343	1
0	34221	10239.566800213936	0
0	34224	10240.844155167842	1
0	34226	10241.757437608431	0
0	34229	10242.081839184703	1
0	34232	10244.064841018298	2
0	34237	10245.852625720815	3
0	34239	10246.099291531287	2
0	34244	10247.163265365229	3
0	34246	10248.095063384076	2
0	34249	10248.709605612659	3
0	34254	10250.19778937906	2
0	34256	10250.279950870608	1
0	34261	10251.582550294378	2
0	34265	10253.239616995558	1
0	34272	10253.904642900689	0
0	34314	10266.853575601855	1
0	34316	10267.355667882279	0
0	34329	10271.067912641035	1
0	34333	10271.587457548366	0
0	34336	10272.414020191745	1
0	34338	10272.880861024386	0
0	34354	10277.911016060465	1
0	34356	10278.891916514309	0
0	34359	10279.165108035185	1
0	34362	10280.980002737098	2
0	34365	10282.28124033814	3
0	34370	10285.783359807708	2
0	34373	10286.033950324409	3
0	34375	10286.852367806367	2
0	34378	10287.701890469767	3
0	34380	10288.504823209919	2
0	34383	10289.133786068536	3
0	34386	10290.769148526393	4
0	34388	10291.145626320946	3
0	34391	10292.469719161704	4
0	34393	10294.1071849463	3
0	34396	10294.123949386604	4
0	34398	10294.616622319681	3
0	34400	10295.120471021493	2
0	34403	10295.786523761839	3
0	34408	10297.737411309214	2
0	34410	10298.794648086029	1
0	34412	10299.087757276369	0
0	34427	10302.618476530962	1
0	34429	10303.796553045586	0
0	34432	10303.860012889333	1
0	34437	10305.433668669179	2
0	34439	10306.152050541753	1
0	34441	10306.338149921914	0
0	34444	10306.767924709111	1
0	34447	10308.033272848703	2
0	34452	10309.768076760188	3
0	34457	10311.482257579878	4
0	34459	10312.284132390803	3
0	34462	10313.357233903237	4
0	34464	10314.121658016235	3
0	34466	10314.374950494754	2
0	34468	10314.677468941159	1
0	34471	10315.310443435476	2
0	34473	10316.637793862421	1
0	34476	10316.914030970127	2
0	34478	10317.365191376496	1
0	34481	10318.505144039967	2
0	34484	10320.318702226558	3
0	34487	10321.555870778353	4
0	34491	10322.217458001724	3
0	34494	10322.817973022589	4
0	34496	10323.039987368043	3
0	34498	10323.43996084606	2
0	34500	10324.03425064069	1
0	34503	10324.107147314267	2
0	34506	10325.325845926495	3
0	34509	10326.691435311788	4
0	34512	10328.255859104411	5
0	34514	10328.472571322234	4
0	34518	10329.672062851109	3
0	34520	10330.142538679026	2
0	34523	10330.235402914004	3
0	34525	10330.301847655993	2
0	34528	10331.505981889234	3
0	34530	10331.816090166944	2
0	34532	10332.310651153473	1
0	34537	10334.295412846483	0
0	34540	10335.273565145635	1
0	34542	10335.469476552254	0
0	34547	10336.496373405361	1
0	34550	10337.800442939678	2
0	34552	10338.401263830629	1
0	34555	10339.338720766136	2
0	34557	10340.363456748637	1
0	34560	10340.786770214753	2
0	34562	10341.411900703371	1
0	34564	10341.60674005923	0
0	34577	10345.561103970798	1
0	34580	10347.374965814183	2
0	34582	10348.356042358298	1
0	34585	10348.660204032304	2
0	34587	10349.265306327504	1
0	34592	10350.068042069355	2
0	34594	10350.158863458161	1
0	34596	10350.291984995016	0
0	34622	10358.788705650772	1
0	34624	10359.246467981728	0
0	34627	10360.1835663159	1
0	34630	10361.394404627252	2
0	34632	10361.952896441106	1
0	34635	10363.237877018433	2
0	34637	10363.531520588735	1
0	34640	10365.017326399554	2
0	34642	10366.000652618519	1
0	34644	10366.484392825573	0
0	34647	10366.666087237802	1
0	34650	10368.036481903736	2
0	34653	10369.24403047679	3
0	34658	10371.154529137407	4
0	34662	10372.855058600327	3
0	34665	10373.028151157555	4
0	34667	10373.623270779743	3
0	34672	10374.681441392247	4
0	34674	10374.766603602039	3
0	34678	10375.869538002892	2
0	34681	10375.997267686632	3
0	34683	10376.198921601805	2
0	34685	10376.246822232827	1
0	34688	10377.556759204399	2
0	34691	10379.355843446832	3
0	34695	10380.341000790654	2
0	34698	10380.583722598906	3
0	34701	10382.368729722369	4
0	34703	10383.047406516812	3
0	34705	10383.2240680635	2
0	34707	10383.29010651311	1
0	34710	10383.596985459197	2
0	34713	10385.153004746567	3
0	34715	10386.02694494766	2
0	34718	10386.371437871325	3
0	34720	10386.998241416512	2
0	34723	10388.137996818553	3
0	34726	10389.583218018021	4
0	34728	10389.669888362419	3
0	34730	10389.772645085916	2
0	34735	10390.969834125656	3
0	34737	10391.065467136319	2
0	34740	10392.45483559003	3
0	34745	10394.026916049289	4
0	34747	10395.879412550744	3
0	34750	10395.98459871305	4
0	34760	10398.716276837754	5
0	34762	10400.166518616235	4
0	34765	10400.43342800537	5
0	34767	10401.67819847791	4
0	34770	10401.867004470209	5
0	34772	10402.104464625249	4
0	34774	10402.435946027747	3
0	34777	10403.744109238552	4
0	34779	10404.03101375893	3
0	34781	10404.283523171218	2
0	34783	10404.706278317372	1
0	34786	10405.107892812656	2
0	34791	10407.203347553682	1
0	34794	10408.411088231633	2
0	34796	10408.806405136684	1
0	34803	10410.062776358108	2
0	34805	10411.434645519982	1
0	34807	10411.846891605142	0
0	34812	10412.017650628331	1
0	34814	10412.127040354238	0
0	34817	10413.726786528583	1
0	34820	10415.111116337459	2
0	34823	10416.561211569663	3
0	34826	10418.030028044674	4
0	34829	10419.787073788102	5
0	34831	10419.989589281584	4
0	34836	10421.630126699302	5
0	34839	10423.083833769578	6
0	34841	10423.309106555529	5
0	34844	10424.442118267398	6
0	34847	10426.418951461892	7
0	34849	10426.936977697009	6
0	34856	10428.715876461384	5
0	34858	10429.436027869638	4
0	34861	10429.734557557162	5
0	34863	10430.612017772747	4
0	34868	10431.601231433821	3
0	34871	10432.73391491348	4
0	34874	10434.637275055294	5
0	34876	10434.876087970482	4
0	34879	10436.569459438381	5
0	34882	10437.896520366204	6
0	34884	10438.291601017362	5
0	34889	10439.407695502658	6
0	34891	10439.683751995547	5
0	34893	10440.562665497111	4
0	34896	10440.724736133088	5
0	34898	10441.78892090962	4
0	34903	10442.137623230238	5
0	34908	10444.058162018713	6
0	34910	10444.466074996278	5
0	34912	10445.124923569654	4
0	34914	10445.149065258992	3
0	34917	10446.017439696994	4
0	34919	10446.244911994657	3
0	34921	10446.432728634928	2
0	34923	10446.515078303987	1
0	34925	10446.5652543022	0
0	34930	10447.221476521772	1
0	34932	10448.098992847616	0
0	34935	10448.62603619868	1
0	34938	10449.937750309576	2
0	34940	10450.409862633283	1
0	34943	10451.589205419888	2
0	34945	10451.718683649552	1
0	34949	10453.481613115315	0
0	34952	10453.485034149197	1
0	34954	10453.977055406991	0
0	34973	10458.096647450572	1
0	34975	10458.436428103602	0
0	34995	10464.928224931529	1
0	34997	10465.472673120421	0
0	35000	10466.183352256997	1
0	35002	10467.156218445637	0
0	35005	10467.96381979516	1
0	35007	10469.825633905186	0
0	35010	10469.910677094816	1
0	35012	10471.222859633985	0
0	35022	10472.965147178865	1
0	35024	10473.194545526241	0
0	35054	10481.917269654258	1
0	35057	10483.891899986251	2
0	35061	10485.098754527516	1
0	35063	10485.349286987311	0
0	35066	10485.618852840981	1
0	35068	10486.910799138704	0
0	35071	10487.097771261504	1
0	35073	10487.112814463837	0
0	35076	10488.380686133413	1
0	35078	10489.581207351684	0
0	35086	10491.569396847172	1
0	35088	10492.971948461063	0
0	35091	10493.191224615334	1
0	35093	10493.383330034182	0
0	35112	10501.165978326334	1
0	35116	10501.414107713575	0
0	35119	10502.757340712158	1
0	35121	10503.773499423325	0
0	35129	10505.613908866292	1
0	35131	10505.762891609689	0
0	35146	10509.996903051121	1
0	35151	10511.576904889067	2
0	35153	10512.093257610597	1
0	35156	10513.08326000726	2
0	35160	10513.947111627116	1
0	35164	10514.119455998871	0
0	35167	10514.754019449522	1
0	35169	10516.001045451106	0
0	35172	10516.163933394906	1
0	35174	10516.286614349186	0
0	35208	10525.065531585236	1
0	35211	10526.868769514059	2
0	35213	10527.581657324618	1
0	35215	10527.722592405103	0
0	35218	10528.421959061605	1
0	35221	10529.755481892881	2
0	35227	10531.307453281426	1
0	35230	10531.695432566722	2
0	35232	10533.269652251071	1
0	35235	10533.523541284782	2
0	35237	10534.615505177168	1
0	35240	10534.80134981094	2
0	35242	10535.616702747419	1
0	35245	10536.611421305184	2
0	35247	10537.344213951364	1
0	35249	10537.838407089732	0
0	35260	10541.639061552156	1
0	35262	10542.704158431395	0
0	35265	10543.477641589809	1
0	35267	10544.219894801868	0
0	35275	10546.391940015797	1
0	35277	10546.882573931972	0
0	35297	10552.71081296118	1
0	35300	10554.484750177395	2
0	35303	10555.705778694582	3
0	35305	10556.418171799099	2
0	35307	10556.985078425416	1
0	35310	10557.548681158815	2
0	35312	10558.89208437863	1
0	35315	10559.533039196078	2
0	35317	10559.618197573373	1
0	35319	10560.648821147816	0
0	35341	10565.604666685369	1
0	35343	10565.722095985691	0
0	35346	10567.046980053801	1
0	35348	10567.200126193897	0
0	35375	10575.338060315567	1
0	35381	10576.865322786927	0
0	35387	10578.623932314719	1
0	35392	10580.291479902769	2
0	35396	10581.336850419308	1
0	35398	10581.497369878348	0
0	35401	10581.560661443936	1
0	35403	10582.224989006649	0
0	35440	10593.198790518806	1
0	35442	10594.45374910729	0
0	35452	10596.702674494178	1
0	35456	10597.749368660976	0
0	35499	10611.005430871114	1
0	35501	10611.604931381863	0
0	35504	10612.517994342238	1
0	35508	10613.103286110829	0
0	35511	10613.876196944207	1
0	35515	10614.327081689149	0
0	35518	10615.128830517694	1
0	35520	10615.611617085662	0
0	35541	10623.450689294799	1
0	35545	10624.106063775506	0
0	35577	10634.33244106309	1
0	35581	10634.617370543317	0
0	35584	10635.814234765856	1
0	35586	10636.869859119677	0
0	35589	10637.325917941941	1
0	35591	10638.449648715349	0
0	35594	10638.749170881374	1
0	35596	10639.813549306707	0
0	35599	10640.672080173021	1
0	35603	10641.800474748011	0
0	35610	10642.626834308965	1
0	35613	10643.927918697199	2
0	35617	10644.202836922141	1
0	35619	10644.588198988677	0
0	35627	10647.514309452339	1
0	35629	10648.097872463805	0
0	35632	10649.09359462732	1
0	35634	10649.549760620199	0
0	35644	10651.759914243831	1
0	35646	10652.082263819461	0
0	35669	10659.613210342503	1
0	35672	10661.582998230359	2
0	35674	10661.621646332372	1
0	35677	10663.557130686617	2
0	35680	10665.365054331584	3
0	35683	10667.271377049437	4
0	35686	10668.540052471174	5
0	35688	10669.669260105184	4
0	35691	10670.160859236917	5
0	35693	10670.294507821348	4
0	35695	10670.999957606373	3
0	35699	10671.129791580502	2
0	35702	10671.420218522152	3
0	35704	10671.672218634706	2
0	35709	10673.150091242282	3
0	35711	10673.654580935361	2
0	35716	10675.117862351615	1
0	35719	10676.380333726159	2
0	35721	10676.791794767634	1
0	35724	10677.746302632107	2
0	35727	10679.145675508729	3
0	35729	10680.216128505383	2
0	35731	10680.599575981384	1
0	35734	10681.020506817899	2
0	35736	10681.697516451469	1
0	35739	10682.687674673326	2
0	35741	10683.375680558582	1
0	35743	10684.123986546546	0
0	35746	10684.128447418339	1
0	35749	10685.61653822349	2
0	35752	10687.42511123275	3
0	35754	10688.041234562516	2
0	35757	10688.767938670941	3
0	35760	10690.333049808868	4
0	35762	10690.462173201233	3
0	35764	10691.496623373616	2
0	35766	10691.661037638266	1
0	35769	10691.784655904264	2
0	35772	10693.711387587392	3
0	35776	10695.309406041723	2
0	35779	10695.422507800774	3
0	35781	10695.674768532703	2
0	35786	10697.242106747917	1
0	35788	10697.387347608198	0
0	35830	10710.24565158827	1
0	35832	10711.791095219879	0
0	35835	10711.943490182848	1
0	35837	10712.55506234383	0
0	35840	10713.923524528236	1
0	35842	10714.063519911278	0
0	35845	10715.619124223345	1
0	35847	10716.045151888462	0
0	35850	10717.512812711165	1
0	35852	10718.718883382076	0
0	35855	10718.83181440612	1
0	35859	10719.919341944793	0
0	35862	10720.471656220273	1
0	35865	10721.711436016538	2
0	35867	10721.917171903728	1
0	35871	10722.615675130784	0
0	35874	10723.412473928236	1
0	35878	10724.520327309597	0
0	35881	10724.75913651982	1
0	35884	10726.221069284954	2
0	35886	10727.3867204971	1
0	35889	10728.195718168334	2
0	35892	10729.732903737814	3
0	35894	10731.286326858633	2
0	35896	10731.49547831629	1
0	35899	10731.537032870815	2
0	35902	10732.841772541084	3
0	35907	10734.428459163808	4
0	35909	10735.370754245569	3
0	35912	10735.798566944019	4
0	35917	10737.741248315757	3
0	35922	10738.588256138802	4
0	35927	10739.851618093864	5
0	35929	10741.105658402412	4
0	35932	10741.130517240294	5
0	35937	10742.676216124237	6
0	35940	10744.005711157673	7
0	35942	10745.249843998361	6
0	35945	10745.912935782277	7
0	35948	10747.762759599515	8
0	35950	10748.974671411864	7
0	35953	10749.472094149754	8
0	35955	10750.014048032852	7
0	35957	10750.860791852495	6
0	35960	10750.920657981612	7
0	35962	10751.066110033619	6
0	35965	10752.650173048169	7
0	35968	10754.324005368218	8
0	35974	10757.318960625172	9
0	35977	10759.004378906317	10
0	35979	10759.512483452679	9
0	35982	10760.267015363887	10
0	35985	10761.561155198194	11
0	35989	10762.172958248839	10
0	35992	10763.460273841076	11
0	35995	10764.914972011052	12
0	35997	10765.862784415486	11
0	35999	10766.121629969809	10
0	36002	10766.240159037575	11
0	36010	10769.5050238811	12
0	36013	10771.17562357267	13
0	36015	10771.476003789774	12
0	36017	10771.734268930788	11
0	36019	10771.889872371476	10
0	36021	10772.096021035961	9
0	36024	10772.719421691686	10
0	36027	10773.959826167166	11
0	36032	10775.787930487334	12
0	36034	10776.259316876845	11
0	36036	10777.344758964507	10
0	36039	10777.345653940789	11
0	36041	10777.662154762688	10
0	36043	10778.362321057632	9
0	36046	10778.716512259148	10
0	36049	10780.235858426109	11
0	36051	10781.636326807583	10
0	36056	10781.999719583482	11
0	36058	10782.822586465129	10
0	36061	10783.51813154319	11
0	36063	10784.848161703259	10
0	36066	10785.222844336794	11
0	36069	10786.822856808135	12
0	36072	10788.02768492704	13
0	36075	10789.293150497654	14
0	36078	10790.751066068427	15
0	36080	10792.019197859789	14
0	36085	10792.277758692817	15
0	36090	10793.532321477735	16
0	36092	10795.106652974466	15
0	36095	10795.228732996488	16
0	36097	10795.407976889423	15
0	36100	10796.668557666296	16
0	36102	10798.280413899053	15
0	36105	10798.654822456332	16
0	36108	10800.22680900717	17
0	36111	10802.022675464729	18
0	36113	10802.785383422324	17
0	36119	10805.012977808769	18
0	36122	10806.332640588711	19
0	36124	10807.098164398118	18
0	36127	10807.947623925711	19
0	36129	10808.156548512335	18
0	36131	10808.792034831049	17
0	36133	10809.012730336241	16
0	36135	10809.402599380859	15
0	36138	10809.569301428515	16
0	36140	10809.915949656821	15
0	36143	10811.200446575749	16
0	36145	10811.628925255022	15
0	36147	10811.642145356353	14
0	36149	10812.15060513588	13
0	36151	10812.740498164073	12
0	36154	10812.96610961711	13
0	36157	10814.223917299378	14
0	36159	10815.847842780201	13
0	36162	10816.163539824504	14
0	36164	10816.622780157329	13
0	36166	10817.374847528081	12
0	36169	10817.75660199305	13
0	36171	10817.809051920447	12
0	36173	10818.510011392313	11
0	36176	10819.195674868542	12
0	36178	10819.32689691432	11
0	36180	10820.277998110662	10
0	36182	10820.339279368889	9
0	36188	10821.955743241365	10
0	36191	10823.772738529238	11
0	36194	10825.065577160063	12
0	36196	10825.156551238021	11
0	36198	10825.39782327735	10
0	36200	10826.387973540812	9
0	36203	10826.438668929281	10
0	36205	10827.978328256944	9
0	36208	10828.244088394622	10
0	36214	10831.822491248752	11
0	36216	10833.430680497971	10
0	36219	10833.635289289671	11
0	36221	10833.989962419404	10
0	36223	10834.485007583934	9
0	36225	10835.041524020785	8
0	36228	10835.321146769877	9
0	36233	10837.084809058587	10
0	36235	10837.777917022345	9
0	36241	10839.695266695189	10
0	36243	10840.674709483808	9
0	36247	10841.358668087425	8
0	36250	10841.470248092766	9
0	36252	10841.740091656176	8
0	36255	10842.688823777306	9
0	36257	10843.863512507791	8
0	36260	10844.491945341098	9
0	36262	10845.188947050507	8
0	36266	10845.711448621207	7
0	36269	10845.950221297386	8
0	36272	10847.356086440067	9
0	36275	10848.872337287906	10
0	36281	10851.634726803247	11
0	36284	10853.336193732601	12
0	36291	10854.607528999504	13
0	36294	10856.234440241065	14
0	36296	10856.78452217592	13
0	36299	10857.851809029896	14
0	36301	10858.303286490499	13
0	36304	10859.3862744358	14
0	36306	10860.771610540551	13
0	36309	10861.305900721122	14
0	36311	10861.739825275118	13
0	36314	10862.672804359589	14
0	36316	10863.430959289997	13
0	36319	10863.99768196499	14
0	36321	10864.068268888171	13
0	36323	10864.462679317469	12
0	36326	10865.743401620221	13
0	36328	10866.001605021485	12
0	36330	10866.570250468372	11
0	36335	10868.417461039535	10
0	36338	10869.032277629022	11
0	36341	10870.875416817386	12
0	36347	10873.887678022738	13
0	36349	10874.022653223405	12
0	36352	10875.705119826886	13
0	36354	10876.349872207859	12
0	36356	10876.466757533664	11
0	36358	10876.475052219816	10
0	36360	10876.841371912107	9
0	36362	10876.967564401856	8
0	36365	10877.637032989654	9
0	36367	10878.032760369514	8
0	36370	10879.268838856052	9
0	36372	10879.538108959811	8
0	36376	10880.634037561479	7
0	36379	10881.253160850573	8
0	36382	10883.124733456652	9
0	36387	10885.977673127606	8
0	36390	10886.16382020438	9
0	36392	10886.882144315287	8
0	36394	10887.308050428379	7
0	36397	10887.989868140089	8
0	36399	10888.190483539061	7
0	36401	10888.657042284932	6
0	36408	10890.10904133373	5
0	36410	10890.340576526424	4
0	36415	10890.9111771016	5
0	36417	10891.610029787049	4
0	36423	10893.974722736384	5
0	36427	10895.264044431227	4
0	36430	10895.609644045736	5
0	36432	10896.162940104938	4
0	36435	10896.813771614488	5
0	36437	10897.323360319656	4
0	36442	10898.765233210344	5
0	36444	10899.492097410211	4
0	36450	10902.047886095811	5
0	36453	10904.026324652937	6
0	36456	10905.623096202184	7
0	36458	10906.40119912258	6
0	36460	10906.680114360438	5
0	36463	10907.547614789811	6
0	36465	10907.68028814349	5
0	36468	10909.461534163226	6
0	36471	10911.213379535508	7
0	36474	10912.533929738086	8
0	36484	10916.350362724945	7
0	36487	10917.229690035861	8
0	36489	10917.274194946075	7
0	36491	10917.41427598823	6
0	36493	10918.323296923756	5
0	36496	10918.934140818063	6
0	36498	10919.198810582829	5
0	36500	10920.355733907879	4
0	36503	10920.440718889478	5
0	36505	10920.564194290473	4
0	36509	10921.980225612505	3
0	36511	10922.307739327449	2
0	36517	10924.058316351156	3
0	36519	10925.459835125051	2
0	36526	10926.976117696327	1
0	36531	10927.173085738029	2
0	36533	10928.077390562615	1
0	36535	10928.429981863622	0
0	36538	10928.87365215687	1
0	36540	10929.110805651667	0
0	36553	10933.477701486703	1
0	36557	10934.416357450285	0
0	36560	10934.893964447509	1
0	36563	10936.574863167162	2
0	36568	10938.269344530868	3
0	36570	10938.646062409012	2
0	36572	10938.907316447022	1
0	36575	10939.630827236044	2
0	36578	10941.307341294232	3
0	36580	10941.868591035256	2
0	36583	10942.727499140854	3
0	36585	10943.554797551158	2
0	36588	10944.01791627692	3
0	36591	10945.763279040213	4
0	36596	10947.445981355253	5
0	36600	10948.961381024035	4
0	36603	10949.143992135915	5
0	36605	10949.354945749092	4
0	36608	10950.662672486211	5
0	36610	10951.336482162108	4
0	36615	10952.365256720277	5
0	36618	10953.886868937182	6
0	36620	10954.252630496447	5
0	36623	10955.578607014994	6
0	36625	10956.131701332609	5
0	36630	10956.89136066554	6
0	36632	10956.929388712703	5
0	36634	10957.533547515786	4
0	36639	10959.482190314246	3
0	36642	10959.926100125963	4
0	36645	10961.267000500539	5
0	36647	10962.663045633366	4
0	36649	10962.725785966462	3
0	36652	10963.088957119973	4
0	36657	10964.572894719483	5
0	36660	10966.376399708965	6
0	36664	10966.550709230845	5
0	36667	10967.614654487797	6
0	36670	10969.145465062239	7
0	36672	10969.903247331625	6
0	36674	10969.971294745272	5
0	36682	10972.365160088481	6
0	36687	10974.15530699441	7
0	36689	10974.404714032003	6
0	36691	10974.614970674287	5
0	36693	10975.28908990166	4
0	36696	10976.029072561541	5
0	36698	10976.482566774719	4
0	36700	10977.122746214067	3
0	36707	10979.32040489985	2
0	36709	10979.422959309927	1
0	36712	10979.581052680367	2
0	36714	10980.749700241574	1
0	36716	10980.950814876904	0
0	36719	10981.306423329615	1
0	36721	10981.485818631339	0
0	36745	10987.429550289044	1
0	36749	10987.880455755586	0
0	36762	10992.496627066152	1
0	36764	10993.098166717221	0
0	36779	10997.470951266827	1
0	36782	10998.682623177821	2
0	36785	11000.007376426885	3
0	36787	11000.495443101601	2
0	36789	11000.652732757855	1
0	36791	11001.001365378068	0
0	36794	11001.961100844534	1
0	36797	11003.35173976017	2
0	36800	11004.775629083866	3
0	36802	11004.8210758809	2
0	36804	11005.259996194727	1
0	36807	11006.223134204985	2
0	36811	11007.486957699248	1
0	36813	11007.612618336284	0
0	36816	11007.664467578248	1
0	36818	11007.67891232137	0
0	36821	11009.131952440605	1
0	36823	11009.423998298138	0
0	36850	11017.026987108454	1
0	36852	11017.058937533608	0
0	36882	11025.701268260979	1
0	36885	11027.08010874191	2
0	36887	11027.28998767853	1
0	36889	11027.486742203311	0
0	36899	11029.912199349941	1
0	36902	11031.731485997566	2
0	36904	11032.363299975244	1
0	36906	11032.453647273289	0
0	36929	11039.762951030263	1
0	36931	11039.885206357114	0
0	36936	11041.304481046514	1
0	36938	11041.393278124565	0
0	36994	11056.887043600769	1
0	36996	11057.081547780127	0
0	37006	11060.188314934128	1
0	37009	11061.45551199937	2
0	37012	11062.773132320361	3
0	37019	11065.146470344299	2
0	37021	11065.757853092471	1
0	37024	11066.482637345845	2
0	37026	11067.251058917143	1
0	37028	11067.579099368792	0
0	37061	11077.506021497453	1
0	37066	11079.829107089295	0
0	37125	11097.204814621673	1
0	37130	11098.738612673857	2
0	37133	11100.572453398869	3
0	37135	11100.760410240197	2
0	37137	11101.178124145169	1
0	37139	11101.881166276576	0
0	37142	11101.993410443195	1
0	37144	11102.604745394618	0
0	37147	11103.378101865069	1
0	37149	11103.472700809864	0
0	37157	11106.473982521013	1
0	37160	11108.258644074441	2
0	37162	11109.498459209573	1
0	37167	11109.65146039519	0
0	37201	11119.391435667553	1
0	37203	11119.686310728767	0
0	37215	11122.328889730812	1
0	37218	11123.551219040395	2
0	37220	11124.110128769577	1
0	37223	11125.543907293731	2
0	37225	11125.858080320476	1
0	37227	11125.86239010027	0
0	37244	11130.799008598977	1
0	37251	11132.716797751242	2
0	37254	11134.141007587181	3
0	37256	11135.090740828136	2
0	37259	11135.642155323045	3
0	37261	11135.933144630746	2
0	37263	11136.385569989533	1
0	37266	11137.023511198217	2
0	37268	11137.047848720654	1
0	37270	11137.988873418588	0
0	37313	11150.188858986701	1
0	37315	11151.584121813138	0
0	37318	11151.967648865151	1
0	37320	11152.896968225309	0
0	37323	11153.768747027832	1
0	37325	11155.211876948892	0
0	37333	11157.303875415827	1
0	37335	11158.60219271277	0
0	37338	11159.020788392666	1
0	37340	11159.387459910012	0
0	37353	11163.494407988768	1
0	37355	11164.214689977408	0
0	37358	11165.346986456271	1
0	37360	11165.442926863576	0
0	37363	11166.576075187567	1
0	37365	11168.291705790751	0
0	37396	11175.013691041861	1
0	37399	11177.009783763308	2
0	37401	11177.423277650832	1
0	37403	11177.608160416387	0
0	37408	11178.775457586963	1
0	37412	11179.802582295215	0
0	37415	11180.260586010535	1
0	37417	11180.90412065565	0
0	37420	11181.764956545328	1
0	37422	11181.901614195272	0
0	37454	11192.144661857617	1
0	37456	11192.338736135768	0
0	37478	11198.219610706028	1
0	37480	11199.202493036315	0
0	37488	11201.323273958881	1
0	37490	11201.613626152088	0
0	37551	11220.95413958734	1
0	37553	11221.311601901905	0
0	37556	11222.272121471596	1
0	37558	11222.550526896186	0
0	37568	11225.574129638878	1
0	37572	11227.144327002734	0
0	37578	11228.60820373023	1
0	37580	11230.204495672955	0
0	37583	11230.455682947171	1
0	37585	11231.212158279187	0
0	37593	11233.844624367785	1
0	37597	11234.904748817187	0
0	37600	11235.530961485263	1
0	37603	11237.039669273477	2
0	37606	11238.726759438273	3
0	37608	11239.511616616107	2
0	37613	11240.227911088113	3
0	37615	11240.73372496882	2
0	37618	11241.805456976276	3
0	37620	11242.727319414287	2
0	37625	11244.023727200641	1
0	37629	11244.192412689128	0
0	37632	11244.892786004823	1
0	37634	11245.194366230516	0
0	37639	11246.363136633914	1
0	37642	11247.606100197006	2
0	37644	11248.830675368649	1
0	37652	11251.408618667964	2
0	37655	11253.349786954615	3
0	37657	11254.289790875551	2
0	37660	11254.723207825664	3
0	37662	11255.4929649037	2
0	37664	11255.579431287814	1
0	37669	11256.032212751228	2
0	37671	11256.293089161804	1
0	37674	11257.64944585884	2
0	37676	11257.84216954786	1
0	37680	11258.210755970628	0
0	37703	11265.612869519983	1
0	37705	11265.714025746796	0
0	37708	11267.158742816616	1
0	37710	11268.007700963732	0
0	37724	11270.413327909689	1
0	37726	11271.369152565471	0
0	37729	11272.338508633393	1
0	37732	11273.825718633699	2
0	37738	11277.212632757107	3
0	37740	11277.786966061387	2
0	37742	11277.805838203607	1
0	37745	11278.5126331708	2
0	37747	11279.236686183539	1
0	37750	11280.350675798075	2
0	37753	11281.823785018788	3
0	37755	11282.364053666209	2
0	37758	11283.127407718317	3
0	37760	11283.462469955208	2
0	37763	11284.36197862556	3
0	37765	11285.634884462919	2
0	37768	11286.13363031117	3
0	37774	11289.437758078479	4
0	37776	11289.676039885349	3
0	37779	11290.701833433338	4
0	37781	11290.922760435079	3
0	37787	11294.068291832932	4
0	37790	11295.397008217738	5
0	37793	11297.265203958244	6
0	37795	11297.469344687039	5
0	37797	11297.665567643361	4
0	37799	11298.362261942111	3
0	37802	11298.647016464041	4
0	37804	11298.67109200878	3
0	37810	11299.649154462972	2
0	37813	11299.99630390709	3
0	37815	11300.767435574136	2
0	37818	11301.480328157039	3
0	37820	11302.582772900235	2
0	37823	11303.429956964457	3
0	37826	11304.781060539053	4
0	37831	11306.78787076082	3
0	37833	11307.147853807545	2
0	37836	11307.970174608432	3
0	37838	11307.970498270938	2
0	37840	11308.749555935622	1
0	37842	11309.13291692351	0
0	37850	11311.246753532306	1
0	37852	11311.359041648808	0
0	37855	11312.821633489483	1
0	37857	11313.654013960562	0
0	37860	11314.183384756238	1
0	37862	11314.37750705209	0
0	37865	11315.523783501291	1
0	37867	11315.643051313106	0
0	37872	11316.969346356259	1
0	37875	11318.206478372642	2
0	37877	11318.778251392522	1
0	37880	11319.468521026761	2
0	37882	11319.518110325502	1
0	37884	11319.778288234199	0
0	37887	11320.774854569376	1
0	37891	11321.848968382577	0
0	37930	11332.251915052585	1
0	37932	11332.291250474198	0
0	37958	11341.550320890412	1
0	37964	11343.04844387591	0
0	37967	11343.324065170117	1
0	37969	11343.711427572023	0
0	37972	11345.21813375713	1
0	37974	11345.652969582723	0
0	37993	11350.398354246892	1
0	37998	11352.127735979891	0
0	38016	11358.572114785813	1
0	38020	11359.882304666898	0
0	38023	11360.456700191327	1
0	38025	11361.214938219825	0
0	38053	11369.651364739851	1
0	38055	11371.176801361438	0
0	38058	11371.185886617803	1
0	38060	11371.440327776165	0
0	38063	11372.430478992366	1
0	38065	11373.272740993175	0
0	38068	11374.244028012135	1
0	38073	11375.468229824358	2
0	38075	11375.969868284514	1
0	38077	11376.145120350517	0
0	38087	11378.038786581771	1
0	38089	11378.243205797122	0
0	38099	11381.247778917903	1
0	38104	11383.21479175584	0
0	38107	11384.578905845115	1
0	38110	11385.890654082092	2
0	38112	11386.819907523591	1
0	38115	11387.599442674647	2
0	38118	11389.038840243648	3
0	38120	11390.095907953011	2
0	38123	11390.667603729534	3
0	38125	11391.821204704792	2
0	38127	11392.124316394548	1
0	38129	11392.161923607034	0
0	38132	11392.298759104553	1
0	38134	11393.591655252174	0
0	38142	11395.629060874376	1
0	38147	11397.272229627575	2
0	38149	11397.309678963679	1
0	38151	11397.484731771006	0
0	38154	11398.618468551579	1
0	38156	11398.7054764863	0
0	38161	11400.36345370585	1
0	38163	11401.767112333292	0
0	38166	11402.234795932713	1
0	38168	11402.594183838953	0
0	38176	11406.06276273882	1
0	38180	11407.227412056505	0
0	38183	11407.738887002189	1
0	38188	11409.424155010525	2
0	38190	11410.588897106364	1
0	38193	11411.101053562257	2
0	38195	11412.287294682968	1
0	38197	11412.565442528517	0
0	38200	11412.643680174145	1
0	38202	11412.855294987692	0
0	38205	11414.595632031615	1
0	38208	11415.81101319814	2
0	38213	11417.349069201629	3
0	38215	11418.327096530832	2
0	38217	11418.88015457738	1
0	38220	11419.000912648495	2
0	38222	11420.623893532792	1
0	38225	11420.830544693079	2
0	38230	11422.456764949542	3
0	38234	11422.660536840509	2
0	38237	11424.015542741176	3
0	38239	11424.526998819328	2
0	38241	11424.76463264577	1
0	38243	11425.77546097001	0
0	38246	11425.980312096011	1
0	38254	11429.087859630641	2
0	38256	11430.615045297079	1
0	38259	11430.758349320908	2
0	38261	11431.392554478136	1
0	38264	11432.456314345133	2
0	38266	11432.733398086294	1
0	38268	11433.753972522346	0
0	38271	11433.886443788987	1
0	38273	11435.269617634183	0
0	38278	11435.730356583242	1
0	38281	11437.419553358351	2
0	38283	11438.516610713331	1
0	38286	11439.27231180804	2
0	38288	11440.101919446672	1
0	38290	11440.156241371011	0
0	38342	11456.105346922075	1
0	38347	11457.311087771562	2
0	38350	11458.701456507539	3
0	38352	11458.834540301956	2
0	38355	11460.591607787331	3
0	38357	11461.485091455233	2
0	38359	11461.726515104438	1
0	38362	11461.840643126947	2
0	38364	11462.728959497498	1
0	38369	11464.782337938124	0
0	38372	11465.50765569849	1
0	38379	11466.9683232308	2
0	38381	11467.0028311288	1
0	38383	11467.26812027711	0
0	38386	11468.431711175722	1
0	38390	11469.393405603529	0
0	38408	11475.306744221096	1
0	38410	11475.649373729453	0
0	38418	11479.151344613602	1
0	38421	11480.394717748707	2
0	38425	11481.355976698706	1
0	38430	11482.21161269067	2
0	38432	11482.558626562859	1
0	38435	11483.971261722279	2
0	38437	11483.999613113681	1
0	38440	11485.199213086871	2
0	38442	11485.264539286181	1
0	38444	11485.532958494325	0
0	38452	11488.957301242893	1
0	38454	11489.61861678062	0
0	38475	11496.700323682522	1
0	38478	11498.429654649516	2
0	38483	11499.792075341252	3
0	38485	11500.024898484387	2
0	38487	11500.513067986703	1
0	38489	11500.802740033635	0
0	38492	11501.047826918085	1
0	38494	11501.475631608728	0
0	38520	11510.646470440609	1
0	38526	11513.903266237175	2
0	38530	11514.996928623825	1
0	38533	11515.252055945305	2
0	38536	11516.702592062635	3
0	38538	11516.752772152007	2
0	38540	11517.241704543928	1
0	38542	11518.010661747383	0
0	38545	11518.361693682952	1
0	38550	11519.854041510692	2
0	38552	11521.6107139279	1
0	38555	11521.837831966451	2
0	38557	11521.863056136175	1
0	38559	11522.169390677211	0
0	38592	11534.369928849173	1
0	38594	11535.001192809325	0
0	38597	11535.984289276657	1
0	38600	11537.688070623075	2
0	38603	11539.452932001335	3
0	38608	11541.010458047559	4
0	38613	11543.655674793634	3
0	38616	11544.064203556684	4
0	38620	11544.784108838772	3
0	38622	11545.377592925013	2
0	38627	11546.360122711846	1
0	38629	11546.711217556829	0
0	38632	11547.498821522167	1
0	38634	11547.602143745896	0
0	38652	11553.462756394839	1
0	38654	11554.033112539329	0
0	38657	11555.360169303848	1
0	38659	11555.414678057142	0
0	38667	11558.680762101396	1
0	38669	11559.564879767083	0
0	38699	11568.914266307711	1
0	38701	11569.901899902131	0
0	38704	11570.215437756165	1
0	38706	11570.623676990082	0
0	38721	11574.432633909455	1
0	38724	11576.386561625695	2
0	38729	11577.794943076616	3
0	38731	11577.989667285327	2
0	38735	11578.666576639294	1
0	38738	11579.091582910774	2
0	38740	11579.660474458837	1
0	38742	11579.697024710618	0
0	38749	11580.468485479114	1
0	38752	11581.897580974234	2
0	38754	11582.281498712193	1
0	38757	11583.582963848358	2
0	38759	11583.653174719655	1
0	38764	11585.006887099577	2
0	38766	11585.645324912672	1
0	38769	11586.413186418695	2
0	38771	11586.634414586872	1
0	38774	11587.96211027844	2
0	38779	11589.679671172855	3
0	38781	11590.523071513924	2
0	38787	11592.805626726767	3
0	38789	11593.960440435654	2
0	38794	11594.745514384799	1
0	38796	11595.643966661216	0
0	38799	11596.282146998925	1
0	38804	11597.905057389906	2
0	38807	11599.440493048599	3
0	38809	11599.559153647479	2
0	38816	11602.535209859796	1
0	38819	11602.77309853757	2
0	38823	11604.177351576591	1
0	38826	11604.489914873859	2
0	38828	11605.128421283104	1
0	38830	11605.347317559111	0
0	38833	11605.877824933885	1
0	38835	11605.940940580845	0
0	38843	11608.95621277081	1
0	38846	11610.524077583348	2
0	38848	11611.327028535	1
0	38850	11611.774818802184	0
0	38853	11612.250980972742	1
0	38856	11613.876475713087	2
0	38859	11615.763468283659	3
0	38864	11617.760062763712	4
0	38866	11617.927423030003	3
0	38868	11618.166784326499	2
0	38870	11618.263401192304	1
0	38872	11619.253603232803	0
0	38875	11619.414311844355	1
0	38877	11620.03167409367	0
0	38961	11645.811226773693	1
0	38970	11647.483959936782	2
0	38973	11648.83011637485	3
0	38977	11650.429970783587	2
0	38980	11650.79608316148	3
0	38983	11652.620813144057	4
0	38985	11653.205097915356	3
0	38988	11654.127836380771	4
0	38990	11654.716432388768	3
0	38992	11655.755125129039	2
0	38995	11655.991845623648	3
0	39000	11657.815881444944	4
0	39002	11659.411143192809	3
0	39005	11659.632780810131	4
0	39007	11659.866572589163	3
0	39009	11660.075436352924	2
0	39011	11660.356158029185	1
0	39015	11661.239495836461	0
0	39050	11670.422331545001	1
0	39052	11671.355614360189	0
0	39065	11674.744935305662	1
0	39068	11676.633369786351	2
0	39071	11677.862113897375	3
0	39073	11679.063936045067	2
0	39075	11679.192583802194	1
0	39078	11679.511146429054	2
0	39080	11679.896342824509	1
0	39083	11681.190967203922	2
0	39085	11681.277551221775	1
0	39088	11682.401435018949	2
0	39095	11684.524151467573	1
0	39098	11685.470983761423	2
0	39100	11686.024220375354	1
0	39103	11686.846026389547	2
0	39106	11688.339109766357	3
0	39108	11688.402120872616	2
0	39111	11689.902316295229	3
0	39113	11690.325172474426	2
0	39115	11691.319299420818	1
0	39120	11692.833041430553	0
0	39128	11694.625722184651	1
0	39131	11695.906325975866	2
0	39134	11697.33341979167	3
0	39136	11698.659357539409	2
0	39139	11698.705320091048	3
0	39141	11700.181812095348	2
0	39144	11700.347101618411	3
0	39149	11701.662414202156	4
0	39151	11701.948466709092	3
0	39153	11702.854543481545	2
0	39155	11702.936794454126	1
0	39158	11703.156481268133	2
0	39160	11704.662739410524	1
0	39162	11704.841373791451	0
0	39165	11704.868058218683	1
0	39168	11706.121714349153	2
0	39170	11706.203754329451	1
0	39172	11706.71562222198	0
0	39175	11707.71402222837	1
0	39177	11709.278261407226	0
0	39180	11709.58620980146	1
0	39183	11711.110902106824	2
0	39185	11711.371628374074	1
0	39187	11711.378068050406	0
0	39192	11712.463355024966	1
0	39194	11712.589663934596	0
0	39209	11717.139293237838	1
0	39212	11719.060595512639	2
0	39214	11719.462809649111	1
0	39217	11720.933480625476	2
0	39219	11721.926421666732	1
0	39221	11722.091829100276	0
0	39224	11722.173209730412	1
0	39226	11722.286255619578	0
0	39256	11731.984503968309	1
0	39258	11732.05472219868	0
0	39261	11733.344952125724	1
0	39264	11735.274177799251	2
0	39266	11735.795416053815	1
0	39268	11736.039433520156	0
0	39282	11738.556503751564	1
0	39285	11740.208226358022	2
0	39288	11741.600638337124	3
0	39290	11742.527641448662	2
0	39293	11743.174118301894	3
0	39295	11743.602080440009	2
0	39297	11744.70169645101	1
0	39299	11745.068448572074	0
0	39302	11745.080017313424	1
0	39304	11745.653255981694	0
0	39342	11757.145221835251	1
0	39346	11757.697124474299	0
0	39354	11760.611670107643	1
0	39357	11761.910767233993	2
0	39360	11763.283606576796	3
0	39363	11765.245578591588	4
0	39365	11765.246753091171	3
0	39367	11765.790303502978	2
0	39370	11767.139976528722	3
0	39372	11768.57856812074	2
0	39375	11769.130951642308	3
0	39378	11771.070080236222	4
0	39380	11771.085252167792	3
0	39383	11772.415063881192	4
0	39386	11774.318100696306	5
0	39389	11775.765152228314	6
0	39392	11777.238772421021	7
0	39394	11778.600941706891	6
0	39399	11778.650701391353	5
0	39401	11778.859772095425	4
0	39404	11780.389318859454	5
0	39407	11782.375928195815	6
0	39410	11783.754123690228	7
0	39413	11785.21920759442	8
0	39416	11786.722495438221	9
0	39418	11786.781728729785	8
0	39420	11787.166247659732	7
0	39422	11787.887302328256	6
0	39425	11788.471122057053	7
0	39427	11788.809050811653	6
0	39429	11789.264604517985	5
0	39431	11789.940642238216	4
0	39434	11790.316764166268	5
0	39437	11791.814989527004	6
0	39439	11792.632099027518	5
0	39443	11792.833583267692	4
0	39446	11793.400606275225	5
0	39449	11795.1539409666	6
0	39451	11795.229628672405	5
0	39453	11796.625470014117	4
0	39456	11796.802982815975	5
0	39459	11798.689927893379	6
0	39461	11799.606104177116	5
0	39464	11800.626439889209	6
0	39466	11800.90965002498	5
0	39468	11801.694088689114	4
0	39471	11802.326326755123	5
0	39474	11803.844238689231	6
0	39476	11804.411625986266	5
0	39478	11804.63223840207	4
0	39481	11805.089043816054	5
0	39483	11806.406491836449	4
0	39486	11806.470713851848	5
0	39488	11806.847541385501	4
0	39490	11807.395971798967	3
0	39492	11807.482964180908	2
0	39494	11807.941691410577	1
0	39497	11808.262085613483	2
0	39499	11809.353189773631	1
0	39501	11809.736150538519	0
0	39504	11809.799839094342	1
0	39509	11811.61133077635	2
0	39514	11813.304340553244	1
0	39519	11814.579542196044	2
0	39522	11816.3189768179	3
0	39524	11817.417069508365	2
0	39527	11817.635995080011	3
0	39529	11819.04522298509	2
0	39532	11819.10310073855	3
0	39534	11820.052774411942	2
0	39536	11820.632182425498	1
0	39539	11821.068220330092	2
0	39541	11821.154987709742	1
0	39543	11821.166994817117	0
0	39568	11829.263329573969	1
0	39570	11829.980244689415	0
0	39573	11830.633342903169	1
0	39575	11831.191503848085	0
0	39578	11831.979462058904	1
0	39583	11833.83190265956	2
0	39586	11835.416194198715	3
0	39588	11835.561300859004	2
0	39590	11835.946637966095	1
0	39595	11836.906680028575	2
0	39597	11838.007096430898	1
0	39600	11838.134345211337	2
0	39602	11838.845203063889	1
0	39607	11840.408974289525	0
0	39615	11843.210516835998	1
0	39618	11844.46614864717	2
0	39621	11846.27642705335	3
0	39623	11847.730593566886	2
0	39626	11848.15002095184	3
0	39629	11849.729174153942	4
0	39634	11851.519499278318	5
0	39636	11851.859891774777	4
0	39638	11852.672337280574	3
0	39641	11852.979779462393	4
0	39644	11854.687140674766	5
0	39646	11855.145151216273	4
0	39648	11855.638550855646	3
0	39651	11856.571038097951	4
0	39653	11856.651165869452	3
0	39655	11857.557575060805	2
0	39658	11858.05628228585	3
0	39660	11859.062968892298	2
0	39663	11859.639202485855	3
0	39665	11860.559132432125	2
0	39667	11860.937217524934	1
0	39669	11861.026756318365	0
0	39672	11861.621146430697	1
0	39675	11863.350444702495	2
0	39678	11865.28045457403	3
0	39681	11866.5294942022	4
0	39684	11867.990350871596	5
0	39686	11868.345258325503	4
0	39688	11868.403709515345	3
0	39691	11869.621195598196	4
0	39696	11870.967543313902	5
0	39698	11871.414553174382	4
0	39705	11872.958287625639	3
0	39708	11873.587469098781	4
0	39710	11873.623888191787	3
0	39712	11873.725621452742	2
0	39715	11874.882292436686	3
0	39717	11875.787074627618	2
0	39719	11875.820323519014	1
0	39721	11875.90100334206	0
0	39751	11883.663472361181	1
0	39753	11884.518783499908	0
0	39795	11897.266307592082	1
0	39800	11898.703486072335	2
0	39802	11900.341860577109	1
0	39804	11900.413157904551	0
0	39807	11900.510406526427	1
0	39809	11901.043423906679	0
0	39824	11904.970147651683	1
0	39827	11906.643483712959	2
0	39835	11909.669551967892	3
0	39837	11909.916658531313	2
0	39839	11910.400318223223	1
0	39846	11912.152163549806	0
0	39858	11914.441352141153	1
0	39861	11915.987462129321	2
0	39863	11916.3259608128	1
0	39865	11916.710750746088	0
0	39868	11917.692817286465	1
0	39873	11919.413964938808	2
0	39878	11921.036871137533	3
0	39880	11921.286117139618	2
0	39882	11922.213605379753	1
0	39887	11922.778255722548	2
0	39889	11923.097994131719	1
0	39892	11924.384559848781	2
0	39900	11927.771601397048	3
0	39903	11929.483089666131	4
0	39905	11931.053860139783	3
0	39910	11931.85669119589	2
0	39913	11932.531219327885	3
0	39915	11933.096019368938	2
0	39917	11934.074492967094	1
0	39920	11934.339595265563	2
0	39922	11934.707517788015	1
0	39924	11935.903646917382	0
0	39930	11937.377105521288	1
0	39932	11938.686516815952	0
0	39935	11938.997584698972	1
0	39937	11939.204901795232	0
0	39953	11944.758646103803	1
0	39955	11944.917819035013	0
0	39958	11946.483417689677	1
0	39961	11948.236328221921	2
0	39963	11949.516923612863	1
0	39965	11949.53794297084	0
0	39968	11949.617874662828	1
0	39970	11950.38232351898	0
0	39973	11951.49230799551	1
0	39976	11953.182189961773	2
0	39978	11953.254692938682	1
0	39980	11953.689901921668	0
0	39983	11954.642398886446	1
0	39985	11956.103518161439	0
0	39988	11956.448793865804	1
0	39990	11956.514784878871	0
0	39998	11959.1817754707	1
0	40000	11959.197760257445	0
0	40037	11970.802607152488	1
0	40039	11971.057495545181	0
0	40057	11976.902831855665	1
0	40059	11977.092308131955	0
0	40080	11985.570503259327	1
0	40082	11986.067110527177	0
0	40085	11987.445877746183	1
0	40087	11987.520744891472	0
0	40090	11989.075308594916	1
0	40095	11990.473430062707	2
0	40099	11991.047958141425	1
0	40102	11992.273207299474	2
0	40104	11993.910387180429	1
0	40107	11994.066274903032	2
0	40109	11994.201840737986	1
0	40112	11995.627293706934	2
0	40114	11995.81723729567	1
0	40117	11997.239233275193	2
0	40119	11997.29533532571	1
0	40121	11997.341148981004	0
0	40134	12001.712935730692	1
0	40136	12002.571730882575	0
0	40139	12003.388415837537	1
0	40141	12004.491603507844	0
0	40144	12004.838676177028	1
0	40146	12005.023112914299	0
0	40149	12006.206620443303	1
0	40151	12006.397607969517	0
0	40168	12010.747582261141	1
0	40170	12011.014116459023	0
0	40190	12017.233237420086	1
0	40195	12018.552713070873	2
0	40199	12019.471197253794	1
0	40202	12020.495926241454	2
0	40205	12021.822271822643	3
0	40207	12022.771143180535	2
0	40212	12024.843913896554	1
0	40218	12026.683287636812	2
0	40220	12026.818191864308	1
0	40223	12028.059158629242	2
0	40225	12029.784273990936	1
0	40228	12029.881689905438	2
0	40230	12030.809511882166	1
0	40232	12031.073239867236	0
0	40237	12031.432632714386	1
0	40242	12033.0548927596	0
0	40250	12035.741095278289	1
0	40252	12036.235429606446	0
0	40305	12050.978409676317	1
0	40307	12052.427381827727	0
0	40312	12052.871848057646	1
0	40319	12054.337590295326	2
0	40324	12056.180840304744	3
0	40326	12057.129977914728	2
0	40329	12057.408003643778	3
0	40331	12057.440334571433	2
0	40334	12058.642595442076	3
0	40336	12059.176993569083	2
0	40338	12059.598339610188	1
0	40341	12059.970928881195	2
0	40344	12061.223793502402	3
0	40348	12062.559559795588	2
0	40351	12063.144187932525	3
0	40353	12063.44201982159	2
0	40355	12063.973368816667	1
0	40357	12064.096531062696	0
0	40360	12064.930641400878	1
0	40362	12065.772479428753	0
0	40365	12066.465344043326	1
0	40370	12068.280647977505	2
0	40372	12069.061284446591	1
0	40375	12069.894253803481	2
0	40380	12072.095241193651	1
0	40383	12073.243451617163	2
0	40388	12074.715935053554	3
0	40390	12075.309641670349	2
0	40393	12076.039209137548	3
0	40395	12076.533157432059	2
0	40397	12077.324414191566	1
0	40400	12077.368221708451	2
0	40402	12078.177440268492	1
0	40404	12078.838205823779	0
0	40407	12079.00825570586	1
0	40409	12079.989482829384	0
0	40428	12086.969493774575	1
0	40430	12087.040874156543	0
0	40438	12090.626997856488	1
0	40440	12090.928590993251	0
0	40443	12091.948642378551	1
0	40445	12092.477574412569	0
0	40473	12100.968179114971	1
0	40480	12103.043536731073	0
0	40502	12109.60205025791	1
0	40504	12110.112413971343	0
0	40517	12114.503378459129	1
0	40519	12114.948981547085	0
0	40529	12117.314964502554	1
0	40533	12117.834458289705	0
0	40541	12120.677759780426	1
0	40543	12120.718676762818	0
0	40556	12125.35592700864	1
0	40558	12125.583861625966	0
0	40571	12130.17650106537	1
0	40576	12132.651393629786	0
0	40579	12133.590741474059	1
0	40581	12134.309716696708	0
0	40584	12135.006254691694	1
0	40586	12135.035870069979	0
0	40598	12138.421230765868	1
0	40603	12140.410485306632	2
0	40605	12140.914914309796	1
0	40607	12141.295801940896	0
0	40623	12146.47107132307	1
0	40625	12146.869599158856	0
0	40643	12153.943020866687	1
0	40647	12154.746346544234	0
0	40675	12163.763557517776	1
0	40678	12165.226663858505	2
0	40680	12165.420745744972	1
0	40682	12165.543847655468	0
0	40689	12166.732214329826	1
0	40691	12166.778867892282	0
0	40711	12172.692012661757	1
0	40714	12174.070978858756	2
0	40716	12175.096164772621	1
0	40719	12175.375828342201	2
0	40723	12175.583173222588	1
0	40725	12175.993225260919	0
0	40743	12181.590020841236	1
0	40745	12182.113266601894	0
0	40748	12183.557911676789	1
0	40752	12183.712345216922	0
0	40774	12189.913436215246	1
0	40776	12189.92151897875	0
0	40784	12193.345306525813	1
0	40787	12194.87164085141	2
0	40789	12195.127391377522	1
0	40791	12195.85095610279	0
0	40794	12196.081515425691	1
0	40797	12197.295628920631	2
0	40799	12197.624430338254	1
0	40801	12197.682990438162	0
0	40817	12204.260784866907	1
0	40822	12206.155385396689	2
0	40824	12206.876230607236	1
0	40828	12207.442709822614	0
0	40831	12207.722876875721	1
0	40834	12209.125564226568	2
0	40836	12209.218534605162	1
0	40838	12210.563351182356	0
0	40841	12210.690335763864	1
0	40845	12210.906236322847	0
0	40850	12211.962551927067	1
0	40853	12213.584300202004	2
0	40855	12213.670599887533	1
0	40857	12213.989489643242	0
0	40912	12231.00184119331	1
0	40914	12231.306074888682	0
0	40924	12234.622709789186	1
0	40926	12234.668886807496	0
0	40934	12238.081405378378	1
0	40937	12239.549493935763	2
0	40943	12240.580673516387	1
0	40946	12241.105656921364	2
0	40948	12241.399646335746	1
0	40951	12242.665413920082	2
0	40953	12243.340784972959	1
0	40956	12244.453897549458	2
0	40958	12244.709036475346	1
0	40960	12245.472765715081	0
0	40978	12250.738365689166	1
0	40980	12252.186677407425	0
0	40983	12252.262852647402	1
0	40985	12252.654028940508	0
0	41022	12263.352556061061	1
0	41025	12264.575671075905	2
0	41027	12265.940890281486	1
0	41030	12266.190296988623	2
0	41035	12268.603278919544	1
0	41040	12269.738131461377	0
0	41043	12271.048784698235	1
0	41045	12271.492649344275	0
0	41058	12275.506757363925	1
0	41061	12277.253521697657	2
0	41063	12277.259393906972	1
0	41066	12279.10825192208	2
0	41071	12280.317688647346	3
0	41073	12280.405007128876	2
0	41075	12280.679895882738	1
0	41077	12281.454856368142	0
0	41080	12282.198967206725	1
0	41083	12283.54229648436	2
0	41085	12284.182054946942	1
0	41089	12284.596734947763	0
0	41094	12285.002815567577	1
0	41099	12286.614645743618	2
0	41102	12288.038755403893	3
0	41104	12288.102344455515	2
0	41107	12290.001041662568	3
0	41112	12291.825810370842	4
0	41114	12292.732967339491	3
0	41117	12293.22006387102	4
0	41120	12295.16453827011	5
0	41122	12295.43422759462	4
0	41125	12297.049333685325	5
0	41127	12297.121132825453	4
0	41131	12298.03525863887	3
0	41134	12298.581353078285	4
0	41136	12299.300175877504	3
0	41138	12299.58571558802	2
0	41143	12300.349625787945	3
0	41145	12301.127761906793	2
0	41147	12301.680001918462	1
0	41150	12302.010961884321	2
0	41152	12302.267223607868	1
0	41154	12302.453828869042	0
0	41162	12305.181717195422	1
0	41164	12306.452188629834	0
0	41172	12308.818515770197	1
0	41175	12310.58099567207	2
0	41180	12312.284298632027	1
0	41182	12312.519029033109	0
0	41187	12313.16194790347	1
0	41189	12313.377097272391	0
0	41211	12319.364684640118	1
0	41213	12320.169540283856	0
0	41216	12320.593648836264	1
0	41218	12320.915825657635	0
0	41233	12325.272797539519	1
0	41235	12325.452010281301	0
0	41238	12326.594181703465	1
0	41240	12327.331592694505	0
0	41243	12328.435352686854	1
0	41245	12328.689333707914	0
0	41258	12333.556255781339	1
0	41261	12334.840141756707	2
0	41263	12335.862000927139	1
0	41265	12336.476206236799	0
0	41268	12336.607703844891	1
0	41271	12337.895885533155	2
0	41273	12338.473859330427	1
0	41275	12339.28424498489	0
0	41278	12339.432150654555	1
0	41281	12341.309666252383	2
0	41284	12342.746154013709	3
0	41287	12344.548363256701	4
0	41289	12345.755551221928	3
0	41292	12345.839062037007	4
0	41294	12345.939645049962	3
0	41297	12347.636160587394	4
0	41299	12348.411518367562	3
0	41302	12349.042565131435	4
0	41307	12350.49470514624	5
0	41309	12350.538791291321	4
0	41312	12351.776597951973	5
0	41314	12352.675598412188	4
0	41316	12353.226395942786	3
0	41319	12353.637651698353	4
0	41321	12353.934702446064	3
0	41326	12355.545162219165	2
0	41330	12356.649597421453	1
0	41333	12356.720346019106	2
0	41335	12357.060253355862	1
0	41337	12358.057323735778	0
0	41340	12358.156890965315	1
0	41342	12359.451380840795	0
0	41379	12368.893015240009	1
0	41381	12370.078224050668	0
0	41428	12383.36744682609	1
0	41430	12384.006091582217	0
0	41433	12384.945331637998	1
0	41435	12384.953662376073	0
0	41461	12394.474561733071	1
0	41463	12394.569202272627	0
0	41483	12400.648979461257	1
0	41485	12401.327998558117	0
0	41520	12412.458845913846	1
0	41522	12412.713148525682	0
0	41527	12413.907511155557	1
0	41529	12413.959107720552	0
0	41537	12416.65069047014	1
0	41541	12417.287852143822	0
0	41561	12422.384709506172	1
0	41563	12423.285764836366	0
0	41566	12424.148239836532	1
0	41568	12424.921609376858	0
0	41586	12430.438702119763	1
0	41588	12431.896287671885	0
0	41620	12440.952194949674	1
0	41622	12440.95456282102	0
0	41625	12442.318895123588	1
0	41628	12444.069280902544	2
0	41630	12444.539421697448	1
0	41632	12445.041340076235	0
0	41637	12445.526926184135	1
0	41639	12446.894054331422	0
0	41644	12447.211163476358	1
0	41646	12447.642524150504	0
0	41680	12456.579509546856	1
0	41683	12457.963088397185	2
0	41685	12458.529995008034	1
0	41687	12458.731249391842	0
0	41690	12459.549103658522	1
0	41693	12461.228034416462	2
0	41696	12462.916970289188	3
0	41701	12464.320556957523	4
0	41703	12465.79394051964	3
0	41706	12466.055885814937	4
0	41708	12467.06406072555	3
0	41710	12467.242204509193	2
0	41715	12467.299909195924	3
0	41717	12468.353103912051	2
0	41719	12468.468307788223	1
0	41722	12469.127378220731	2
0	41725	12470.989778700905	3
0	41727	12471.753312494448	2
0	41729	12472.027975314607	1
0	41732	12472.215058239611	2
0	41734	12472.449334510452	1
0	41736	12472.712070389822	0
0	41739	12473.567114429237	1
0	41741	12473.876763149189	0
0	41744	12475.391634802395	1
0	41746	12476.161019219398	0
0	41787	12490.724566125932	1
0	41789	12491.00389733058	0
0	41792	12492.629028053644	1
0	41795	12494.385932984638	2
0	41798	12495.624580272536	3
0	41800	12495.649471952501	2
0	41802	12497.150250908186	1
0	41805	12497.381769149068	2
0	41807	12497.544584497515	1
0	41809	12497.749211418901	0
0	41812	12498.7200321444	1
0	41814	12499.514367071869	0
0	41819	12500.449855942341	1
0	41822	12502.151870007502	2
0	41824	12502.554603947417	1
0	41827	12503.450707874136	2
0	41829	12503.974819976106	1
0	41832	12505.20404776285	2
0	41835	12506.453085684092	3
0	41841	12509.441708291942	4
0	41844	12511.375835517669	5
0	41846	12512.97087546844	4
0	41848	12513.110541372563	3
0	41855	12514.532331507967	2
0	41858	12515.088524960974	3
0	41861	12516.715415245356	4
0	41864	12517.923280572394	5
0	41866	12518.202506405488	4
0	41868	12519.032236069724	3
0	41870	12519.200592750874	2
0	41873	12519.832681503395	3
0	41875	12520.733214043035	2
0	41878	12521.450426366428	3
0	41880	12521.827504617452	2
0	41882	12521.968176921525	1
0	41884	12522.231736447538	0
0	41900	12527.550690624552	1
0	41902	12528.338664053263	0
0	41905	12529.206855753498	1
0	41908	12530.414572272884	2
0	41911	12531.994397617379	3
0	41913	12532.487080842145	2
0	41917	12533.810653309201	1
0	41920	12533.89253638039	2
0	41922	12534.567694914848	1
0	41924	12535.112223214286	0
0	41951	12541.737687396879	1
0	41953	12543.057475622334	0
0	41956	12543.596942206721	1
0	41958	12543.913353531245	0
0	41964	12546.090479075785	1
0	41969	12547.501877470005	2
0	41976	12549.249284003707	1
0	41981	12550.016557967167	2
0	41983	12550.135320867155	1
0	41985	12550.920836637825	0
0	41988	12551.449390776891	1
0	41990	12552.584316784987	0
0	42040	12567.854662787604	1
0	42043	12569.277220582279	2
0	42047	12570.159248919056	1
0	42050	12570.880759087639	2
0	42052	12572.488812863326	1
0	42055	12572.661985892305	2
0	42058	12574.229205490896	3
0	42060	12574.308633448935	2
0	42063	12576.114658540921	3
0	42068	12578.58213874795	2
0	42070	12578.807534851814	1
0	42073	12579.548431161294	2
0	42075	12579.751420957772	1
0	42079	12580.69083090355	0
0	42082	12581.318478387656	1
0	42084	12581.324140302106	0
0	42107	12588.983735830213	1
0	42109	12589.127523347236	0
0	42112	12590.252557862799	1
0	42115	12591.991203585889	2
0	42118	12593.682950604211	3
0	42120	12594.866893183278	2
0	42122	12594.948147396493	1
0	42125	12595.391361721854	2
0	42128	12596.923642498131	3
0	42130	12597.605956055206	2
0	42133	12598.329584964241	3
0	42138	12600.087763272102	4
0	42140	12600.195953240054	3
0	42144	12600.617760512973	2
0	42147	12601.720425634521	3
0	42149	12602.046489106182	2
0	42152	12603.48886626369	3
0	42154	12603.975034902253	2
0	42157	12604.690768059778	3
0	42160	12606.44726526315	4
0	42162	12606.592244994853	3
0	42168	12607.483937131414	2
0	42171	12608.40680268115	3
0	42173	12609.754987171213	2
0	42176	12610.16928380529	3
0	42178	12610.724187676552	2
0	42180	12610.734557809756	1
0	42183	12611.79850940934	2
0	42186	12613.352569764914	3
0	42188	12614.669856022724	2
0	42191	12614.858253203953	3
0	42193	12615.828785419583	2
0	42196	12616.334365094329	3
0	42198	12617.066886021672	2
0	42203	12618.232865077499	1
0	42208	12619.344909498716	2
0	42211	12620.986224716777	3
0	42214	12622.261251669811	4
0	42218	12623.260968152799	3
0	42220	12623.906042506487	2
0	42223	12624.117599314326	3
0	42225	12624.560738609121	2
0	42228	12625.338605385521	3
0	42230	12625.759002795563	2
0	42232	12626.501451135113	1
0	42234	12627.244584879312	0
0	42237	12627.32946201271	1
0	42240	12628.896617736915	2
0	42244	12629.597226669924	1
0	42247	12630.652406093167	2
0	42250	12632.338651890928	3
0	42252	12632.532079100982	2
0	42254	12633.105053865552	1
0	42257	12633.815036417605	2
0	42259	12634.879061782119	1
0	42262	12635.096468724372	2
0	42269	12637.464398892382	1
0	42272	12638.149561020794	2
0	42274	12639.095134905786	1
0	42277	12639.445201726692	2
0	42279	12639.885470309932	1
0	42282	12641.065422422314	2
0	42285	12642.463637264507	3
0	42288	12643.776662056582	4
0	42292	12644.787625206199	3
0	42295	12645.06252400546	4
0	42297	12646.378062557684	3
0	42299	12646.62511906975	2
0	42302	12646.651502276274	3
0	42304	12647.066121433877	2
0	42306	12647.917830707267	1
0	42309	12648.461982962924	2
0	42311	12649.644577807489	1
0	42313	12649.685189872286	0
0	42383	12670.878390375775	1
0	42386	12672.203826464963	2
0	42393	12674.635137789866	1
0	42395	12675.328325042912	0
0	42415	12680.241937229474	1
0	42417	12680.42998261031	0
0	42422	12681.92895788948	1
0	42424	12682.756409881041	0
0	42429	12683.520407798392	1
0	42434	12685.120115566691	2
0	42436	12686.21428211486	1
0	42439	12687.052142185969	2
0	42441	12688.043689146346	1
0	42444	12688.960945046013	2
0	42449	12690.544414641773	3
0	42454	12692.763647505001	2
0	42457	12693.490712963296	3
0	42460	12695.145599658294	4
0	42462	12696.502063264939	3
0	42465	12696.612964680298	4
0	42468	12697.927432097002	5
0	42470	12698.679574197503	4
0	42475	12699.903129559263	5
0	42477	12700.100876343809	4
0	42479	12701.399232864012	3
0	42482	12701.873952259749	4
0	42484	12702.353577607035	3
0	42486	12702.621908707073	2
0	42489	12703.583287633091	3
0	42493	12704.583595333	2
0	42496	12705.139512120999	3
0	42503	12707.099953771077	4
0	42505	12707.101113008496	3
0	42508	12708.462002016485	4
0	42510	12708.618215963283	3
0	42512	12709.22710510148	2
0	42515	12709.811731681668	3
0	42517	12710.202266803543	2
0	42519	12711.019978281036	1
0	42522	12711.082955547304	2
0	42526	12711.324034492602	1
0	42528	12711.865657774306	0
0	42531	12712.631421302513	1
0	42535	12713.283060725038	0
0	42548	12717.262644570761	1
0	42550	12718.259523458484	0
0	42553	12718.83671636849	1
0	42558	12720.525590002232	2
0	42560	12721.888842396956	1
0	42562	12722.087278322649	0
0	42565	12722.17091021824	1
0	42567	12722.39277126912	0
0	42604	12736.68815279703	1
0	42606	12736.875775924331	0
0	42609	12738.388942261668	1
0	42613	12739.257138516523	0
0	42623	12741.713097912887	1
0	42625	12742.395453776917	0
0	42651	12751.762951994011	1
0	42653	12751.968917244325	0
0	42691	12763.783840418116	1
0	42698	12765.691664804586	2
0	42700	12765.720481255064	1
0	42703	12766.910179735602	2
0	42706	12768.115836956048	3
0	42708	12768.769014885575	2
0	42712	12769.56118694482	1
0	42714	12769.625913341667	0
0	42717	12769.937540762381	1
0	42719	12770.87228565677	0
0	42734	12774.751767851295	1
0	42736	12775.479335201497	0
0	42739	12776.204588406602	1
0	42741	12776.631179799247	0
0	42756	12781.206706505151	1
0	42761	12782.853757790503	0
0	42774	12787.108563620479	1
0	42781	12789.673176457492	0
0	42784	12790.388152380728	1
0	42786	12791.075007001182	0
0	42791	12792.028752921217	1
0	42793	12792.206068477106	0
0	42828	12803.544060680152	1
0	42830	12803.587861375383	0
0	42833	12804.842466428385	1
0	42835	12805.743197547596	0
0	42838	12806.369952397675	1
0	42843	12807.782937498458	2
0	42848	12809.502871635065	3
0	42851	12811.042973321371	4
0	42853	12812.645301037567	3
0	42856	12812.676203330487	4
0	42859	12814.497909264334	5
0	42861	12815.580210047	4
0	42864	12815.743136557632	5
0	42867	12817.388513905623	6
0	42869	12817.446722738267	5
0	42871	12817.733779456212	4
0	42873	12818.042984972475	3
0	42877	12819.14510730896	2
0	42880	12819.385906835155	3
0	42883	12820.734586356835	4
0	42885	12820.974732995302	3
0	42887	12821.328283068599	2
0	42889	12822.051869548142	1
0	42891	12822.177217921992	0
0	42894	12822.457691331462	1
0	42896	12823.016009485918	0
0	42904	12826.070893050053	1
0	42906	12827.398246893499	0
0	42909	12827.657032317364	1
0	42911	12827.880418767521	0
0	42949	12841.672747311065	1
0	42952	12842.893654592777	2
0	42955	12844.096979034761	3
0	42957	12845.456704579273	2
0	42962	12846.006431182357	3
0	42964	12846.355720751029	2
0	42967	12847.286835974711	3
0	42970	12848.688818493555	4
0	42972	12848.71033421531	3
0	42974	12850.264058856403	2
0	42977	12850.390129114571	3
0	42981	12851.735450407877	2
0	42984	12852.308110143314	3
0	42988	12852.55915784546	2
0	42990	12853.772303705912	1
0	42993	12854.221460012975	2
0	42997	12855.61798022643	1
0	43000	12856.18368247624	2
0	43002	12856.816597330961	1
0	43005	12857.81534251559	2
0	43007	12858.077520408458	1
0	43015	12860.571920130843	2
0	43017	12861.068132674694	1
0	43019	12861.317038712565	0
0	43024	12862.313651865789	1
0	43026	12863.722338974663	0
0	43042	12868.637209356085	1
0	43044	12869.014727522941	0
0	43049	12870.562601339698	1
0	43051	12871.579688275694	0
0	43054	12871.95361126817	1
0	43056	12872.963774469837	0
0	43079	12880.125968133725	1
0	43081	12881.894873886484	0
0	43084	12882.008471975915	1
0	43086	12882.838608684505	0
0	43089	12883.315526258081	1
0	43091	12883.408509832843	0
0	43149	12904.722784566573	1
0	43151	12905.202273537596	0
0	43178	12912.091227070309	1
0	43181	12913.371563403748	2
0	43183	12914.551593769045	1
0	43189	12916.486104808443	2
0	43191	12917.115821028718	1
0	43193	12918.085495648873	0
0	43196	12918.251554668576	1
0	43199	12920.166632572443	2
0	43202	12921.49806532848	3
0	43204	12922.423718804062	2
0	43207	12922.790666401641	3
0	43209	12923.476766844476	2
0	43212	12924.407355831259	3
0	43214	12924.49384618478	2
0	43216	12925.631232132561	1
0	43219	12925.884107742154	2
0	43221	12926.686759423361	1
0	43223	12926.921102818756	0
0	43250	12934.281298664094	1
0	43252	12935.249606528415	0
0	43255	12935.526763374426	1
0	43258	12936.743922497027	2
0	43260	12936.972547170275	1
0	43264	12937.072165349595	0
0	43267	12938.381470841982	1
0	43269	12939.064909831025	0
0	43299	12947.573914693921	1
0	43301	12947.646578783516	0
0	43304	12949.459331887282	1
0	43306	12949.573617438101	0
0	43309	12951.146381094001	1
0	43311	12951.471696361562	0
0	43351	12964.420990407907	1
0	43353	12964.857422312322	0
0	43356	12965.628708371774	1
0	43359	12967.380267831006	2
0	43361	12968.286203880751	1
0	43364	12968.853181713329	2
0	43366	12969.965131903473	1
0	43372	12971.345457700709	2
0	43375	12972.600597876566	3
0	43378	12974.199983038823	4
0	43380	12974.471597873919	3
0	43383	12976.035079780104	4
0	43385	12977.028992825723	3
0	43387	12977.170187916396	2
0	43390	12977.240459139342	3
0	43392	12977.911512984981	2
0	43394	12979.056290770837	1
0	43397	12979.145337795908	2
0	43402	12980.916068741003	3
0	43404	12981.273600506765	2
0	43409	12982.176586445862	3
0	43411	12982.59860976993	2
0	43413	12982.680013608611	1
0	43415	12983.813891205362	0
0	43450	12993.751878236116	1
0	43453	12995.456451261298	2
0	43456	12997.03315720863	3
0	43459	12998.84177744563	4
0	43464	13000.092313109592	5
0	43466	13001.292359707685	4
0	43469	13001.525120400705	5
0	43471	13002.559128254577	4
0	43476	13003.215890538201	5
0	43479	13004.485082794607	6
0	43481	13005.187639048393	5
0	43483	13005.500588997958	4
0	43486	13006.404077381708	5
0	43488	13007.332040556364	4
0	43490	13007.629319466699	3
0	43493	13007.794499405541	4
0	43495	13008.134117846789	3
0	43498	13009.756932793439	4
0	43500	13010.206413140462	3
0	43502	13011.44884645666	2
0	43507	13011.604057384723	3
0	43512	13012.97342629365	4
0	43517	13014.622662649372	5
0	43520	13016.267065020905	6
0	43522	13016.321110129023	5
0	43524	13017.060165957999	4
0	43526	13017.388727860897	3
0	43529	13017.956268850968	4
0	43531	13018.274016077227	3
0	43534	13019.605340425552	4
0	43536	13020.091292411872	3
0	43538	13020.581017897813	2
0	43540	13021.231242429794	1
0	43543	13021.507828026519	2
0	43545	13022.975371804807	1
0	43548	13023.099599765495	2
0	43551	13024.902615651556	3
0	43554	13026.818414389969	4
0	43556	13026.819164403136	3
0	43558	13027.543545313861	2
0	43561	13028.22683365594	3
0	43563	13029.689079772663	2
0	43568	13031.069336167786	1
0	43570	13031.167002921281	0
0	43573	13032.027323976601	1
0	43575	13032.270371989678	0
0	43608	13043.360804192046	1
0	43613	13044.643065535905	2
0	43615	13044.682878830078	1
0	43617	13044.687500797985	0
0	43620	13046.052317439275	1
0	43622	13046.547635831794	0
0	43630	13048.542454971442	1
0	43633	13050.057409577513	2
0	43637	13050.123194950212	1
0	43640	13051.807204285333	2
0	43642	13051.88802690428	1
0	43644	13052.102931294916	0
0	43669	13059.798963424631	1
0	43671	13059.889413013756	0
0	43727	13076.447123113343	1
0	43729	13077.365231194416	0
0	43739	13079.261100886272	1
0	43742	13080.516813581133	2
0	43744	13081.041057329767	1
0	43746	13081.837035636268	0
0	43749	13082.072041199984	1
0	43758	13084.597177433801	0
0	43761	13085.284453284064	1
0	43763	13085.399517444225	0
0	43775	13088.485036517748	1
0	43777	13088.493633546527	0
0	43811	13098.079211699285	1
0	43814	13099.862625303373	2
0	43816	13100.23702969251	1
0	43819	13101.215472360581	2
0	43821	13102.053551420785	1
0	43826	13102.983101419426	2
0	43829	13104.380391397021	3
0	43831	13104.382754962937	2
0	43834	13106.29494772616	3
0	43836	13106.629683942747	2
0	43838	13106.89486067493	1
0	43841	13107.926419875651	2
0	43846	13109.374068137884	3
0	43848	13109.632187037833	2
0	43852	13111.011954886943	1
0	43855	13111.097678277708	2
0	43860	13112.624483763194	1
0	43863	13114.031411963954	2
0	43865	13114.297775745312	1
0	43869	13115.083384775319	0
0	43872	13115.701507732152	1
0	43874	13116.130212918323	0
0	43877	13116.907755861311	1
0	43879	13118.286407340081	0
0	43882	13118.60534829802	1
0	43884	13118.746816291538	0
0	43902	13124.686616607449	1
0	43904	13124.89170035831	0
0	43912	13127.58935099735	1
0	43914	13127.823133074214	0
0	43929	13132.286871096558	1
0	43931	13133.350285582449	0
0	43949	13138.377099108763	1
0	43952	13140.287111639298	2
0	43955	13141.785689803466	3
0	43957	13143.253945010586	2
0	43959	13143.562825015659	1
0	43962	13143.576727928474	2
0	43964	13143.686338688159	1
0	43966	13143.830938553646	0
0	43983	13147.603240346416	1
0	43985	13148.897596788071	0
0	43993	13150.857480486176	1
0	43995	13151.982180152286	0
0	44013	13157.372839485174	1
0	44015	13158.565815374584	0
0	44018	13158.605474094925	1
0	44020	13160.096422624203	0
0	44042	13165.335323697952	1
0	44045	13167.068140300242	2
0	44051	13169.939143192833	3
0	44053	13170.459364363608	2
0	44056	13171.297499969294	3
0	44058	13172.182609166572	2
0	44063	13173.797920046263	1
0	44065	13174.49532781171	0
0	44068	13174.559370223684	1
0	44073	13176.4249980726	2
0	44076	13177.785051104864	3
0	44078	13178.602362893046	2
0	44081	13179.691905429279	3
0	44083	13181.07447076044	2
0	44086	13181.111243672547	3
0	44090	13181.619853968996	2
0	44093	13182.506673539308	3
0	44096	13183.832879442972	4
0	44098	13184.001962809115	3
0	44103	13186.090830069555	2
0	44105	13186.730428922327	1
0	44108	13186.951780065399	2
0	44114	13188.316935837292	1
0	44117	13188.680209039588	2
0	44120	13190.118131538358	3
0	44122	13190.583884342712	2
0	44125	13191.554923745681	3
0	44127	13191.931053001979	2
0	44129	13191.957122782737	1
0	44131	13192.088968126824	0
0	44166	13201.874265382503	1
0	44168	13201.976094795434	0
0	44171	13203.604874111031	1
0	44173	13204.20095598679	0
0	44198	13212.474414674816	1
0	44201	13213.712121208449	2
0	44203	13213.763463715438	1
0	44205	13214.369505834687	0
0	44213	13217.13262048575	1
0	44217	13218.600855397211	0
0	44220	13218.994446432096	1
0	44222	13219.88483163639	0
0	44237	13223.559710699571	1
0	44240	13225.211551654963	2
0	44242	13225.344300528571	1
0	44244	13226.375283234575	0
0	44247	13226.587496529399	1
0	44249	13226.898341901297	0
0	44259	13229.367321327581	1
0	44262	13231.2593213028	2
0	44264	13231.289026377683	1
0	44267	13232.519945354825	2
0	44270	13234.275181119023	3
0	44272	13234.734615153613	2
0	44274	13235.378267757091	1
0	44279	13236.057464359952	2
0	44281	13237.231537294634	1
0	44284	13237.837069899281	2
0	44287	13239.301187450876	3
0	44289	13240.141848300135	2
0	44292	13241.258468468179	3
0	44294	13242.356056745306	2
0	44297	13243.027598162805	3
0	44300	13244.353722309199	4
0	44302	13244.901254232962	3
0	44304	13245.05263219314	2
0	44307	13245.849056844664	3
0	44310	13247.440301848081	4
0	44312	13248.033121058668	3
0	44315	13248.692189044942	4
0	44317	13249.033076925164	3
0	44320	13250.562380699877	4
0	44323	13251.931043752719	5
0	44325	13251.947453058566	4
0	44327	13253.11739989818	3
0	44330	13253.189303758059	4
0	44332	13253.424139255717	3
0	44334	13253.652877398098	2
0	44336	13254.055596969509	1
0	44339	13255.166846720193	2
0	44342	13256.370612173591	3
0	44345	13258.356153534416	4
0	44347	13259.068211985116	3
0	44349	13259.7399414401	2
0	44352	13260.173710563097	3
0	44355	13261.484855781745	4
0	44357	13261.831495242429	3
0	44359	13261.890308198361	2
0	44361	13262.209956001664	1
0	44363	13262.314877017848	0
0	44366	13263.063749857496	1
0	44368	13263.73781984012	0
0	44383	13268.250120417278	1
0	44385	13268.768962877379	0
0	44393	13271.426244519901	1
0	44398	13272.6441852546	2
0	44400	13274.21300340467	1
0	44403	13274.548286177281	2
0	44405	13275.701304542277	1
0	44407	13276.186224479251	0
0	44410	13276.398361167002	1
0	44412	13276.997780982786	0
0	44420	13279.213323098484	1
0	44423	13280.97216591059	2
0	44425	13281.290503310807	1
0	44427	13281.941390359915	0
0	44430	13282.224597042117	1
0	44433	13283.600704013806	2
0	44436	13285.185113793302	3
0	44440	13286.106164067437	2
0	44442	13286.330710604253	1
0	44444	13286.355111312639	0
0	44447	13286.591200786147	1
0	44449	13287.813935349801	0
0	44452	13288.177544063765	1
0	44454	13288.285231684299	0
0	44491	13299.77582001264	1
0	44494	13301.021111234713	2
0	44496	13302.225183805318	1
0	44499	13302.265651410881	2
0	44501	13302.266875717675	1
0	44504	13303.602235328283	2
0	44506	13304.706143327061	1
0	44509	13304.990412362356	2
0	44511	13305.995597950943	1
0	44514	13306.69454987875	2
0	44516	13306.714796240536	1
0	44519	13308.526428285491	2
0	44521	13309.484292742206	1
0	44524	13310.004060138826	2
0	44526	13310.819416457073	1
0	44528	13311.539901809703	0
0	44531	13311.913687036064	1
0	44536	13313.127755666774	2
0	44540	13314.16994032243	1
0	44543	13314.732881252717	2
0	44545	13316.001962944373	1
0	44548	13316.348583713423	2
0	44550	13317.540201096341	1
0	44553	13318.095720396254	2
0	44555	13318.870971191566	1
0	44557	13318.879449049989	0
0	44560	13319.4689612162	1
0	44562	13319.842692952396	0
0	44577	13324.334757601533	1
0	44581	13325.850626761128	0
0	44584	13326.278681343857	1
0	44586	13327.433244237579	0
0	44589	13327.551938949588	1
0	44591	13327.691250459524	0
0	44596	13328.929563535254	1
0	44601	13330.609555246185	2
0	44604	13331.879649625781	3
0	44606	13332.110369913766	2
0	44608	13332.625864620624	1
0	44610	13332.767364246755	0
0	44628	13338.448625201236	1
0	44630	13339.814570594416	0
0	44633	13340.217459386464	1
0	44635	13340.551550858902	0
0	44648	13344.632190746691	1
0	44650	13344.696800183113	0
0	44669	13349.150690233211	1
0	44671	13349.232540160569	0
0	44681	13352.394098699714	1
0	44683	13352.91424917192	0
0	44686	13354.302659093651	1
0	44688	13355.445916238551	0
0	44691	13356.093894595343	1
0	44696	13357.630848427366	2
0	44698	13358.431557501802	1
0	44701	13358.858283412519	2
0	44706	13360.353909200865	3
0	44708	13361.76531216344	2
0	44711	13361.87030938125	3
0	44714	13363.421324415754	4
0	44716	13363.715572452157	3
0	44718	13364.650958099645	2
0	44721	13364.861488175827	3
0	44723	13365.76479104142	2
0	44725	13365.958984644392	1
0	44727	13366.006223868268	0
0	44730	13366.309432615402	1
0	44732	13366.716891469082	0
0	44745	13371.939859314698	1
0	44747	13372.008125998425	0
0	44777	13381.909430044581	1
0	44779	13382.213458645008	0
0	44792	13386.744237906736	1
0	44797	13388.41396573509	2
0	44799	13388.763143874688	1
0	44801	13388.782104732833	0
0	44804	13389.7732013256	1
0	44806	13390.936932106528	0
0	44809	13391.28070701274	1
0	44811	13392.495077890686	0
0	44814	13393.064001208794	1
0	44816	13393.122955119786	0
0	44831	13397.439323603426	1
0	44833	13398.052989005359	0
0	44836	13399.068416869518	1
0	44838	13399.139940374165	0
0	44846	13401.99311927284	1
0	44848	13403.304372496528	0
0	44851	13403.506499522988	1
0	44853	13404.217051284552	0
0	44856	13404.919880068179	1
0	44859	13406.897506434906	2
0	44861	13408.009737742121	1
0	44864	13408.491102609474	2
0	44866	13408.997580241189	1
0	44868	13409.363216458034	0
0	44871	13410.146486315008	1
0	44873	13410.303145405495	0
0	44878	13411.393986977327	1
0	44881	13412.927603494066	2
0	44883	13414.077616003273	1
0	44885	13414.227371223774	0
0	44888	13414.782468435417	1
0	44890	13415.719966876192	0
0	44908	13420.968149647178	1
0	44910	13422.436334847746	0
0	44913	13422.765240623304	1
0	44916	13423.988274542303	2
0	44918	13425.489593572216	1
0	44921	13425.744342763969	2
0	44924	13427.546143566692	3
0	44926	13428.344426646593	2
0	44929	13429.217697244012	3
0	44934	13431.019022058943	4
0	44937	13432.896245062599	5
0	44939	13434.252043013075	4
0	44942	13434.557512447858	5
0	44944	13436.043966802251	4
0	44946	13436.231475679876	3
0	44949	13436.513221288534	4
0	44954	13438.370811542558	5
0	44958	13439.644183805339	4
0	44961	13439.911689271281	5
0	44963	13440.532750617586	4
0	44966	13441.463818892712	5
0	44968	13441.948375053867	4
0	44971	13443.006838155041	5
0	44975	13444.577096889101	4
0	44978	13444.819285961675	5
0	44980	13444.906893586492	4
0	44983	13446.243824848781	5
0	44991	13449.459560203055	6
0	44994	13450.685172391372	7
0	44996	13450.721198399627	6
0	44999	13452.384142808678	7
0	45002	13453.715962840679	8
0	45004	13454.127270738344	7
0	45006	13454.97557729695	6
0	45009	13455.491573272335	7
0	45012	13456.808623517367	8
0	45014	13457.579676484968	7
0	45017	13458.421410408678	8
0	45021	13459.524434527848	7
0	45024	13460.374510521131	8
0	45026	13460.486795184528	7
0	45028	13460.92878082489	6
0	45030	13461.96253721373	5
0	45033	13462.089113332952	6
0	45035	13463.308042718387	5
0	45040	13463.86999024308	6
0	45042	13464.200392361589	5
0	45044	13464.457437463513	4
0	45046	13464.997619735928	3
0	45049	13465.654497621084	4
0	45051	13466.497365510418	3
0	45053	13467.347511565054	2
0	45056	13467.490900897855	3
0	45058	13467.536225653361	2
0	45060	13468.088216862824	1
0	45065	13470.116560992145	0
0	45068	13470.500997253942	1
0	45070	13471.534605433376	0
0	45107	13482.697718803646	1
0	45109	13483.104359186151	0
0	45138	13491.64365897576	1
0	45140	13492.421022647854	0
0	45219	13513.988586256528	1
0	45221	13515.602949249727	0
0	45224	13515.9790595411	1
0	45227	13517.58699426713	2
0	45229	13518.626493906861	1
0	45231	13518.883499186812	0
0	45234	13519.502238956714	1
0	45237	13520.739608468363	2
0	45239	13521.303347156994	1
0	45242	13522.053952897215	2
0	45244	13523.130631278995	1
0	45246	13523.453829887896	0
0	45249	13524.015053840043	1
0	45252	13525.533327962706	2
0	45255	13526.932187659355	3
0	45257	13527.226131996996	2
0	45261	13528.203642284886	1
0	45264	13528.606219616221	2
0	45267	13530.45624850324	3
0	45270	13532.22863399821	4
0	45272	13533.271944814934	3
0	45275	13533.634583800162	4
0	45277	13534.419434488685	3
0	45280	13535.202624225492	4
0	45282	13536.047892036127	3
0	45287	13537.194274619298	2
0	45289	13537.781468802956	1
0	45294	13538.490092154095	2
0	45296	13539.143674078364	1
0	45298	13539.678527830566	0
0	45301	13540.241129067788	1
0	45306	13541.538792355979	2
0	45309	13543.425560224677	3
0	45313	13544.879442942035	2
0	45316	13545.242402659605	3
0	45318	13546.536779176202	2
0	45320	13546.722123894456	1
0	45323	13547.049713898326	2
0	45325	13548.661171440585	1
0	45328	13548.809982085663	2
0	45330	13549.34038196648	1
0	45333	13550.040082939032	2
0	45336	13551.587085490178	3
0	45338	13551.745287820456	2
0	45340	13552.825653221294	1
0	45345	13553.803077210525	0
0	45358	13557.846564419072	1
[...]
6	73901	22053.938496137055	10.703448388213
6	73926	22062.619547816197	3.002778903304
6	73949	22070.654803404044	18.770549360965
6	73966	22078.014953109267	6.050718783597
6	73986	22084.3133947408	5.133792861296
6	74004	22090.076188141311	9.378141298674
6	74039	22100.711134383286	12.614139849914
6	74058	22105.282162825967	1.619002498686
6	74101	22119.944102604892	32.237346275266
6	74361	22195.6368317757	5.642911615003
6	74426	22213.850567574261	15.441360046247
6	74438	22217.54174496459	3.550687147227
6	74486	22233.607655015422	21.504023936898
6	74545	22251.210534088335	1.34390189331
6	74556	22255.630552527144	1.358303880319
6	74661	22287.922303771993	16.267166499635
6	74666	22289.855170900768	1.932867128775
6	74687	22294.580615578799	33.875983454874
6	74723	22307.516161530299	1.731604656205
6	74738	22313.018108664846	8.67431150469
6	74751	22317.802276736705	1.707882453874
6	74845	22346.305090619832	16.94176991266
6	74858	22351.443156234943	19.105946791882
6	74886	22358.566119844861	18.677388443737
6	74967	22382.654025834448	4.172066514178
6	74978	22387.641305714309	19.772565438217
6	74993	22392.143074373737	1.866699850187
6	75017	22398.694087970466	1.974707553908
6	75184	22449.374909268341	3.682771839847
6	75344	22492.2930925878	15.506553602374
6	75361	22496.666053817818	7.486575708464
6	75587	22564.702252709329	8.73101900087
6	75672	22591.951522034429	42.922803198926
6	75721	22606.140169809037	72.403271279693
6	75836	22636.363244609	1.221453761123
6	75864	22646.255456995615	9.464223944863
6	75872	22649.129485487775	13.962291434275
6	75885	22654.236083783606	12.592751127273
6	75925	22667.273580793502	26.043516667572
6	76034	22700.437558957588	32.504319990989
6	76098	22719.523718347613	1.356409639679
6	76137	22729.626745415319	11.559944694887
6	76165	22740.098865560842	15.356161136968
6	76212	22753.54697754628	13.738470715584
6	76408	22812.579917136421	28.553605878475
6	76429	22817.757327498896	1.550572278351
6	76432	22819.110166331967	1.352838833071
6	76477	22834.424552291845	32.121486845348
6	76618	22877.707468206464	17.629583824766
6	76677	22896.70082024171	17.046066301872
6	76700	22904.488186655409	12.939977528566
6	76878	22953.386441480027	5.232646363319
6	76966	22979.158679340437	48.897730477071
6	77024	22995.517982551299	25.106629936768
6	77123	23026.753882011615	24.633912759573
6	77147	23032.919305239088	1.685104094073
6	77171	23038.993921150482	15.492297825373
6	77193	23049.108168786792	1.701335998625
6	77203	23052.321120615331	1.710291463695
6	77213	23055.12697542238	18.131177847148
6	77244	23062.42661630663	10.12846521998
6	77288	23075.496818456081	11.369076463702
6	77296	23079.32664414945	4.878397676035
6	77312	23085.793787718033	14.662778771178
6	77475	23134.273818540043	13.929600467503
6	77483	23137.582668266846	11.089751514594
6	77486	23139.2362148315	6.237526071663
6	77496	23142.580627810239	31.43950417886
6	77602	23174.688137268677	5.513446565582
6	77837	23245.039763377079	10.336596550586
6	78166	23340.370574804426	1.770958568156
6	78216	23356.109648713686	8.596945182867
6	78345	23392.917128650502	1.758403198235
6	78462	23429.860782719061	5.012995842693
6	78470	23433.259285888478	9.76162175467
6	78486	23439.598580193363	13.583997890884
6	78491	23441.403807473585	14.758911710424
6	78656	23490.944808053068	1.322255929373
6	78683	23498.954357038653	8.040382400252
6	78686	23500.259265710814	1.304908672161
6	78760	23518.726115706961	10.136863963544
6	78956	23581.340311958854	8.639286502057
6	78961	23583.069755013314	1.72944305446
6	78974	23588.430380059992	1.870480841026
6	79064	23612.27002542748	1.381514954008
6	79095	23623.852899147597	16.398422420999
6	79104	23625.3974189468	8.767066354541
6	79199	23650.692075224248	1.576896677539
6	79204	23652.456944948648	1.7648697244
6	79242	23661.659508759928	23.347353507468
6	79260	23668.174543389332	17.434034716923
6	79278	23674.569713977565	22.258414351016
6	79298	23680.827104357657	7.85536643202
6	79301	23682.498923784149	6.946672161748
6	79353	23701.807766108801	1.904832266644
6	79398	23713.287517391173	6.230021198634
6	79401	23714.887966057872	14.985530477869
6	79639	23784.780126405162	7.066597556323
6	79677	23796.574205656564	30.514445563616
6	79683	23799.752480087272	4.86208224209
6	79808	23837.611614084458	2.89271172748
6	79847	23849.003416082104	1.787227691896
6	79883	23861.499236662154	14.616414356543
6	80063	23910.434578068957	5.74078020352
6	80106	23925.042683020452	13.454550399869
6	80180	23948.835233946548	6.253111197822
6	80291	23981.991478154095	6.868887795972
6	80312	23989.385044816913	21.324846534435
6	80349	24000.893588522666	1.446088709123
6	80411	24018.904702198909	7.860156073337
6	80461	24035.109078941339	7.432318994071
6	80476	24039.925133533806	4.366032128494
6	80525	24054.581273292594	1.419903196022
6	80624	24086.383902199224	1.505306925811
6	80662	24100.193325135142	16.097560455092
6	80851	24154.413052774251	7.51623746469
6	80854	24156.212576094673	4.261530718035
6	80866	24159.662607920759	1.989110311493
6	80928	24178.077873360768	7.456645534859
6	81090	24226.131438380511	1.774219990894
6	81110	24232.46688234418	5.314326592506
6	81230	24264.186706446512	1.66915910691
6	81304	24287.37831760927	12.425520513879
6	81315	24291.815631054369	9.325932292328
6	81408	24318.358429496762	10.547443043144
6	81413	24319.805137783502	1.44670828674
6	81443	24329.793560355929	4.304075570687
6	81504	24347.473585004387	15.064772470722
6	81514	24350.358800688414	22.015645285697
6	81536	24357.077608650019	1.620801671594
6	81541	24358.883908904371	19.988011851452
6	81546	24360.631719165509	11.015365338439
6	81574	24370.777469895434	19.989691593296
6	81638	24388.83882685027	5.226948052029
6	81740	24421.379763761751	4.906621233215
6	81797	24438.270303589508	17.600273911951
6	81809	24441.6476658203	8.17812964122
6	81847	24451.040306552715	3.962321176875
6	81869	24457.56056876707	17.209045009888
6	81919	24472.678168247669	39.564868362522
6	81942	24480.002887803903	30.063309595113
6	82022	24502.194101982221	4.603417621612
6	82146	24540.512361036828	5.795612258645
6	82181	24551.468020458548	5.226142951111
6	82227	24564.767324066935	4.386775848182
6	82280	24581.794067071592	28.934927251774
6	82331	24599.825063320091	4.4590447124
6	82480	24643.826458798935	1.972025384195
6	82483	24645.301737285433	9.002575532241
6	82491	24648.502692379085	12.441109388174
6	82605	24679.497505743646	93.504839812048
6	82662	24698.150730648295	4.015365086015
6	82677	24702.685112759688	12.820099253729
6	82709	24713.521686922604	6.887291046312
6	82726	24718.24510919697	1.74711986836
6	82734	24721.286806243317	10.292199821681
6	82796	24740.797032284767	16.881876098292
6	82821	24748.867579290301	5.61197608589
6	82826	24750.461008061685	7.652548274576
6	82831	24752.412459709525	25.819353074511
6	82901	24774.449180747784	23.378137028207
6	83075	24819.152868333487	11.050881047
6	83093	24824.964059944665	5.249450276123
6	83348	24899.255746577338	1.905191236548
6	83474	24934.008449121781	1.938057615981
6	83481	24935.826924773895	29.948505489903
6	83658	24991.624975877842	13.298811956443
6	83677	24996.987700897484	13.806286773991
6	83682	24998.437086594506	16.929778966162
6	83716	25011.302219696	9.3514074646
6	83764	25027.30886554516	19.648923664613
6	83893	25061.819893927156	10.285506592471
6	83919	25068.304346389167	1.655872815289
6	84094	25121.648856085196	18.620944325233
6	84151	25139.641036572524	9.782249865739
6	84186	25151.416588117213	5.2199606443
6	84401	25220.261027059547	46.837287583801
6	84536	25255.822422444478	27.625699541415
6	84584	25268.631291560486	3.989502024305
6	84606	25275.882487614669	4.15601708497
6	84682	25298.943770819746	4.075147981796
6	84728	25313.475750507631	7.957774384794
6	84748	25319.771354421259	43.106249127674
6	84843	25344.320611272784	34.629587685773
6	84863	25350.668897900204	19.92695150591
6	84884	25358.897822210224	23.148814710772
6	84892	25361.968963349828	9.731638114038
6	84940	25374.451537538166	1.668478627317
6	84943	25375.882768364097	1.431230825931
6	84948	25377.695092947441	10.456854566913
6	84957	25382.671573465537	3.186744431355
6	84960	25384.247300817106	7.447372062529
6	84967	25385.581652085889	5.391543324278
6	85106	25429.47390394531	39.182035840635
6	85230	25464.317952590659	14.057124590347
6	85387	25507.763947543913	1.254587587342
6	85392	25509.4000894098	8.544447718534
6	85451	25526.78524702009	10.989334760227
6	85553	25555.795933571496	3.140646022027
6	85633	25582.131971776337	21.697126899831
6	85666	25593.883927869834	13.959296374154
6	85731	25612.439120252469	2.860153190292
6	85742	25616.943993720079	3.071105230205
6	85761	25621.523582219744	18.372634125954
6	85783	25631.158912304642	1.271811092645
6	86184	25740.67507535018	1.426518370211
6	86195	25745.669306471608	1.677973623015
6	86207	25748.554368426874	7.619690491314
6	86286	25771.175063726715	1.802225852944
6	86322	25781.316878947279	12.809645436068
6	86356	25790.505522578059	21.421209688279
6	86427	25813.48040417455	37.33736534505
6	86544	25847.868940797858	1.325511876494
6	86571	25855.891425463222	10.050733657788
6	86589	25862.738235389292	28.984202000696
6	86607	25868.040403844453	3.285907831332
6	86747	25909.202763306388	8.596867304076
6	86754	25910.669073571489	10.790043725621
6	86789	25921.696492240802	11.756337956484
6	86909	25958.196843761244	6.656786987033
6	86926	25963.33054673806	7.670057097902
6	86953	25971.276964733044	44.546849785175
6	86972	25979.956240555683	6.40857513534
6	86988	25986.014465370627	19.70682725293
6	87034	25999.766755100937	3.357687214278
6	87041	26001.586132228413	5.583357535019
6	87096	26018.080491368698	8.125210421763
6	87131	26032.773836579026	15.811997287685
6	87169	26045.988402140366	1.501876731217
6	87219	26061.799377107099	31.312189716788
6	87288	26084.256695417165	21.419259647636
6	87393	26110.627948956413	5.248979847
6	87473	26130.503770432656	18.865684120279
6	87486	26134.977385310677	25.179166741262
6	87498	26138.306957981025	17.472992004726
6	87542	26152.280731373128	30.729087973343
6	87800	26225.949932447852	1.602102741599
6	87846	26239.345060846427	1.539671326987
6	87904	26255.261336554432	25.627291084601
6	88126	26322.111535840697	9.347206239312
6	88179	26336.47682381983	37.716962215534
6	88184	26337.810516650817	16.272371356761
6	88239	26355.845396187	21.782881789132
6	88357	26387.614342212147	11.727889928369
6	88518	26437.701902809955	40.264141611594
6	88533	26442.050282366604	13.800799287458
6	88707	26492.19403180073	1.662330866046
6	88725	26498.822307682251	14.075159371803
6	88739	26502.109386741956	2.999693589213
6	88745	26505.367738861431	6.199690077893
6	88787	26520.87681610233	33.145038917652
6	88971	26572.940593522255	13.883887489006
6	88976	26574.326289431219	14.830066215215
6	89003	26582.29944516628	6.08849380391
6	89018	26586.843637194884	8.981323798614
6	89021	26588.307703964998	51.941485176983
6	89037	26595.018775104572	41.391999935698
6	89055	26601.342251299907	25.440343041173
6	89060	26603.048530742739	17.593377295496
6	89112	26619.277260605458	6.783361968708
6	89249	26661.983435818021	7.398670956832
6	89422	26712.026029318411	5.758592163159
6	89785	26818.882386341161	8.304622873789
6	89795	26822.468153318233	3.529477319464
6	89871	26845.714462520209	32.696012276881
6	89951	26868.741074391855	24.103642477713
6	90039	26893.264646163237	1.762520707026
6	90096	26912.905088832444	12.638722735435
6	90106	26915.895164336293	15.07072163251
6	90140	26925.85105109404	11.431913454843
6	90189	26944.172567995854	1.660046276078
6	90260	26961.070606492491	22.079041341646
6	90285	26969.890988623754	15.479824562501
6	90318	26979.913313136653	1.726806227863
6	90378	26996.6600531746	17.556706857886
6	90420	27010.727514694661	4.222787091468
6	90552	27053.378039497726	12.388816640663
6	90571	27058.344324703917	1.500550017692
6	90683	27092.649010284645	24.412986281251
6	90742	27106.898218218823	18.288808789095
6	90771	27118.040451012765	31.104016462468
6	90862	27142.526182962793	4.488972402875
6	90881	27147.259162119615	10.287225382336
6	90886	27149.190796863872	37.70900831623
6	90889	27150.695372566793	1.504575702921
6	90897	27153.707453451145	23.277421335261
6	90966	27178.649087129186	1.840361252613
6	91011	27190.732862585436	16.726988696298
6	91014	27192.088138337273	12.990705447732
6	91024	27194.888957982909	6.996693665965
6	91051	27203.275585514334	1.442880838551
6	91102	27221.849333716024	19.03376234077
6	91130	27228.613147039552	9.007939743996
6	91135	27230.222910091308	1.609763051756
6	91211	27253.398453290976	6.930546385073
6	91219	27256.449569182686	39.083774019588
6	91222	27258.005958019413	18.123400761596
6	91228	27261.097998378455	1.562125921249
6	91327	27292.065414026594	6.237907327797
6	91488	27340.366897117002	1.694944469444
6	91504	27343.286354256822	16.639962789197
6	91572	27365.235637048659	1.409944375604
6	91604	27374.902329596717	64.139548870211
6	91683	27398.712701012406	32.651677198843
6	91697	27401.726156772699	25.440247330435
6	91746	27415.9189676896	10.687586664522
6	91770	27421.691604603109	37.648129029099
6	91806	27433.437334912483	5.826430524295
6	91813	27435.273147368644	5.70689515706
6	91949	27472.25106477442	1.955630117841
6	92078	27509.220361926806	50.279095846647
6	92161	27531.285361247908	1.210888705589
6	92208	27545.774361459377	3.391399977994
6	92254	27558.819451277357	23.599338115673
6	92274	27565.352206448865	49.752526685602
6	92321	27580.0505459145	17.625558223908
6	92351	27589.414155513077	7.773821110383
6	92359	27592.823021318048	18.45065605036
6	92575	27655.619237071302	18.001823565148
6	92595	27661.995567091582	1.359012683854
6	92620	27670.176964434451	76.848022424434
6	92648	27680.733275674312	26.845816853083
6	92691	27695.351941884523	7.872334972322
6	92908	27757.400927802204	19.615433925831
6	92965	27775.066741756938	8.911351030033
6	93070	27806.905237899193	1.849061468989
6	93111	27821.483437090584	1.678775868565
6	93184	27842.877119830653	9.187439422644
6	93209	27851.231260182738	12.619683161409
6	93251	27862.98512518055	3.101008589703
6	93300	27879.539961906739	3.541418695294
6	93305	27880.870631971986	20.748941902572
6	93313	27883.432275767283	8.099745971044
6	93377	27903.577716772103	10.785108849922
6	93485	27935.922528186471	7.373869220972
6	93533	27948.336970487453	8.629050525104
6	93565	27961.586250030281	6.767388540819
6	93657	27985.674398241968	7.556511240248
6	93690	27996.876528419771	3.934469245896
6	93790	28027.030220688724	20.995010863124
6	93959	28075.019133665444	37.102289345065
6	93974	28079.359399250554	67.452894061046
6	94051	28103.085428359765	3.92351410746
6	94108	28123.858987448396	25.026355732808
6	94182	28142.294188016685	17.987021642958
6	94214	28151.412352936002	11.911008125105
6	94255	28162.565338627841	38.701628300002
6	94307	28179.529527620446	23.277623919175
6	94316	28181.090036223304	26.352907245253
6	94371	28199.474546078256	9.332762419251
6	94386	28204.62878085602	1.402156787179
6	94397	28209.81580585692	15.441507554385
6	94436	28220.369137768111	9.350342266216
6	94518	28246.255031396672	19.957554490778
6	94521	28248.060098172016	11.886140681296
6	94658	28290.00039464872	31.137927705042
6	94694	28299.457214154524	4.892339636522
6	94739	28314.168019970726	4.970696854468
6	94821	28340.224802072753	13.405917023603
6	94879	28354.245028600316	1.4729195958
6	94907	28361.239691275205	1.871968854778
6	94982	28381.886583048698	12.211558970482
6	95002	28389.036645294387	24.066032580398
6	95083	28413.237427174708	4.196064606362
6	95099	28419.299230156315	13.931611080207
6	95159	28437.891270168161	15.706323125115
6	95188	28445.968283939024	6.169520624954
6	95195	28447.796573672479	3.777247312838
6	95225	28457.218868231251	33.234618047609
6	95276	28472.548613697513	3.378950597779
6	95295	28480.016154816038	9.097722980299
6	95346	28494.452072510346	14.446147574392
6	95389	28507.93596665155	21.147519937025
6	95427	28517.78629419323	4.649023127235
6	95437	28520.793070359937	12.845609396976
6	95442	28522.215849138274	18.235066722198
6	95496	28542.292850744576	7.735573325517
6	95593	28568.647136006542	12.722464415573
6	95805	28634.338366315181	1.998028020188
6	95866	28653.302403027789	29.70264391027
6	95931	28669.879048902767	7.206996529257
6	95946	28675.057798712367	3.902918053672
6	95959	28679.788153606878	8.481222151385
6	96128	28727.126209450923	4.96987149505
6	96170	28740.03785749212	26.35829956171
6	96210	28752.240214637705	21.237214248561
6	96217	28753.941861993299	1.701647355594
6	96246	28764.972437486089	13.701816265938
6	96426	28815.514414401387	34.029506903692
6	96431	28816.856041078677	6.8942264171
6	96463	28826.321907207219	9.216823384348
6	96515	28842.795250180958	10.021572650132
6	96533	28848.882883444092	21.1480883697
6	96602	28869.120982798411	38.7460148051
6	96614	28872.476943511365	16.518872864938
6	96709	28898.660554193741	4.020000420994
6	96731	28904.939330604895	3.766041271307
6	96769	28914.779198367185	44.083980600102
6	96849	28938.567794873044	12.742318784465
6	96876	28946.402635335029	1.595910012536
6	96884	28949.764250911438	14.198370749251
6	96992	28982.695358351657	5.65589314272
6	97040	28995.287868146264	33.165790168166
6	97054	28998.331816891619	18.081886446546
6	97065	29003.148175818325	3.838004254108
6	97078	29007.305847945102	1.486721722595
6	97086	29010.365403447897	1.701046520844
6	97139	29027.500088020451	12.365130000897
6	97213	29046.630212904362	17.56175019341
6	97216	29048.160201821698	1.529988917336
6	97272	29064.83877587471	9.743592862419
6	97311	29077.379807449167	13.310775496292
6	97401	29105.417011356576	41.830340517339
6	97456	29121.835866962037	1.689148932882
6	97459	29123.495027238353	3.989756287785
6	97585	29163.236160615308	9.203035804613
6	97640	29181.734463047084	12.863634628092
6	97645	29183.516568854113	1.782105807029
6	97670	29191.468398224411	1.572516879626
6	97808	29232.519499051048	1.747864969634
6	97852	29245.343248586392	9.593115730802
6	98006	29292.889961236191	14.482257010002
6	98018	29296.852945892175	29.071368534439
6	98037	29301.060815988143	17.416045527013
6	98051	29307.050619849411	1.689171066508
6	98122	29329.491311961074	6.590248457269
6	98128	29332.915741428022	7.396408773013
6	98160	29343.288485117479	8.951861593303
6	98204	29355.723228316231	26.79814668061
6	98326	29394.004063435682	1.271644107439
6	98336	29396.808456618936	3.442595659862
6	98383	29408.034452613854	3.542697112192
6	98423	29420.410665513055	8.474892785479
6	98436	29425.127820316368	19.011830533341
6	98472	29434.313352372348	22.506020984411
6	98534	29452.997398694641	8.967067663969
6	98560	29462.825004167705	16.102628038233
6	98626	29481.819208947048	9.261323341645
6	98629	29483.05687637128	12.010762328383
6	98632	29484.27130864136	1.21443227008
6	98655	29492.464585387372	13.707455380831
6	98689	29501.776531127878	25.951644254109
6	98856	29552.884648093994	14.401770187571
6	98919	29573.154137704933	14.09808304126
6	98998	29593.481508469435	1.422047662549
6	99012	29596.85486851916	8.907093414772
6	99025	29601.581310010369	21.106309797389
6	99097	29624.852258842105	1.604927398637
6	99102	29626.597335737796	1.745076895691
6	99153	29641.028542063237	15.050871505835
6	99207	29657.096744551921	1.400957138278
6	99239	29667.559512916246	5.399759942298
6	99375	29709.434922396429	6.943688962218
6	99475	29738.727748348416	16.63161915373
6	99706	29806.231176176146	34.574572358502
6	99765	29823.62974669341	11.575037596628
6	99793	29833.470193799623	13.292155835712
6	99812	29838.548620016911	14.122634668878
6	99820	29841.811585771889	1.352444427274
6	99823	29843.698606067189	12.303336000477
6	99880	29861.679991711342	1.765389231965
6	99925	29877.021935365946	1.805844375119
6	99998	29898.130418372564	6.021137470573
6	100034	29907.263848927095	6.526107856297
6	100133	29934.528207302689	12.285234960327
6	100149	29940.758147501051	30.126974590591
6	100213	29957.372777175941	8.6619119615
6	100239	29966.156682718211	55.18586848675
6	100278	29977.416171110459	1.750705221295
6	100298	29983.251246610321	2.90184369594
6	100303	29984.726310821473	15.56633507281
6	100306	29986.673850472308	1.947539650835
6	100319	29990.995355559177	1.420067264512

