version 2
run Third_exit_8-3-20191023-00:20:23-5303
attr configname Third_exit_8
attr datetime 20191023-00:20:23
attr experiment Third_exit_8
attr inifile omnetpp.ini
attr iterationvars ""
attr iterationvarsf ""
attr measurement ""
attr network ResponseTimeNetwork
attr processid 5303
attr repetition 3
attr replication #3
attr resultdir results
attr runnumber 3
attr seedset 3
param **.Source.interArrivalTime exponential(6s)
param **.jobPriority bernoulli(0.8)
param **.PS.serviceTimeU1 "uniform(1.2s, 2.0s)"
param **.PS.serviceTimeU2 "uniform(2.4s, 2.8s)"
param **.SS1.serviceTime exponential(1.4s)
param **.SS2.serviceTime exponential(2s)
param **.PS.exitProbability bernoulli(0.8)

vector 0 ResponseTimeNetwork.SS1 queueLength:vector ETV
attr interpolationmode sample-hold
attr title "queue length, vector"
vector 1 ResponseTimeNetwork.SS2 queueLength:vector ETV
attr interpolationmode sample-hold
attr title "queue length, vector"
vector 2 ResponseTimeNetwork.QueueU1 queueLength:vector ETV
attr interpolationmode sample-hold
attr title "queue length, vector"
vector 3 ResponseTimeNetwork.QueueU2 queueLength:vector ETV
attr interpolationmode sample-hold
attr title "queue length, vector"
vector 4 ResponseTimeNetwork.sink lifeTimeU1:vector ETV
attr interpolationmode none
attr title "lifetime of arrived jobs U1, vector"
attr unit s
vector 5 ResponseTimeNetwork.sink lifeTime:vector ETV
attr interpolationmode none
attr title "lifetime of arrived jobs, vector"
attr unit s
vector 6 ResponseTimeNetwork.sink lifeTimeU2:vector ETV
attr interpolationmode none
attr title "lifetime of arrived jobs U2, vector"
attr unit s
2	0	0	0
2	5	5.241796973142	1
2	6	6.673653579199	0
2	12	7.852971275722	1
2	13	8.588011145474	0
2	17	8.775891914089	1
2	18	9.820515735516	0
2	22	10.2193343391	1
2	24	10.75190347179	2
2	25	11.061689501883	1
2	29	11.104153741519	2
2	31	11.341229816411	3
2	32	12.377985619822	2
2	36	12.717915250583	3
2	37	13.800775446997	2
2	43	15.379693783544	3
2	44	15.394884183885	2
2	47	17.041967452013	1
2	51	17.42725361326	2
2	52	18.449369408072	1
2	56	19.200212412295	2
2	57	20.091586966881	1
2	61	20.36549153364	2
2	63	20.603711291571	3
2	64	21.846097302505	2
2	68	22.084981321355	3
2	69	23.409783514471	2
2	72	25.234035324001	1
2	76	25.394192830694	2
2	78	25.665819200694	3
2	79	26.679126149298	2
2	84	28.189503154972	1
2	87	29.503677018614	0
2	97	33.410818504311	1
2	99	34.075546362439	2
2	100	34.330258084902	1
2	106	35.056978150056	2
2	107	35.861233031818	1
2	110	37.350484842317	0
2	114	37.61157778895	1
2	116	38.142817783712	2
2	117	38.730528444493	1
2	121	39.888743022185	2
2	122	40.305680640856	1
2	126	40.744810440142	2
2	128	41.414670223734	3
2	129	41.993379572103	2
2	133	43.477729813284	3
2	135	43.484781434869	4
2	136	43.881806701491	3
2	139	45.308596989954	2
2	142	46.730978997307	1
2	146	47.579765813716	2
2	147	47.991139088268	1
2	150	49.352242059703	0
2	154	49.992480586565	1
2	156	50.005232356646	2
2	158	50.552856280778	3
2	159	50.96347010273	2
2	162	52.453342469665	1
2	166	52.567234554423	2
2	167	54.066218165192	1
2	171	54.489943062183	2
2	173	54.517929915123	3
2	174	55.819092502888	2
2	178	56.802950708814	3
2	179	57.694122179109	2
2	183	58.347187713366	3
2	184	59.166001110222	2
2	188	59.434692070296	3
2	190	59.986626806954	4
2	192	61.018870805195	5
2	193	61.026903569955	4
2	197	61.242293517391	5
2	199	61.529185830519	6
2	200	62.276126713004	5
2	204	63.688669334967	6
2	205	64.253408800509	5
2	208	65.839365442541	4
2	212	65.899753551085	5
2	214	65.99819030074	6
2	215	67.060186455843	5
2	219	67.70174103631	6
2	220	68.73751747783	5
2	224	68.834561705519	6
2	226	70.224337713629	7
2	228	70.676314601014	8
2	229	70.678103705381	7
2	232	71.958187180643	6
2	236	72.007501008803	7
2	237	73.2616222712	6
2	240	74.611874131185	5
2	243	76.57355512723	4
2	247	77.168156409643	5
2	249	77.727929619265	6
2	250	78.318844552409	5
2	254	78.818176722525	6
2	256	79.8636717478	7
2	257	80.084589034576	6
2	261	80.292591416044	7
2	263	80.376848985867	8
2	264	82.025969582308	7
2	268	82.691604810468	8
2	270	83.607748040387	9
2	271	83.93085817441	8
2	274	85.41079835191	7
2	278	85.865192080273	8
2	279	87.228989298712	7
2	283	87.376868201289	8
2	284	89.160169508378	7
2	288	90.56606156717	8
2	289	90.586895405943	7
2	293	91.342153571999	8
2	294	92.229171064938	7
2	298	93.57770852987	8
2	299	93.582828902523	7
2	302	94.945131021063	6
2	306	95.393619911106	7
2	309	96.911800007965	6
2	312	98.546675471846	5
2	315	99.818508165959	4
2	319	100.404317684443	5
2	321	100.669170391416	6
2	322	101.409606765467	5
2	325	103.239701325703	4
2	329	104.351458123122	5
2	331	104.790471433878	6
2	332	104.827776704426	5
2	335	106.485566800344	4
2	339	107.402710997485	5
2	341	107.509775601652	6
2	342	107.959502469818	5
2	346	108.435364626245	6
2	348	108.826756341564	7
2	350	109.043343622121	8
2	351	109.255996363866	7
2	354	110.670354567724	6
2	357	112.076119670155	5
2	360	113.497432907554	4
2	365	114.89882611602	3
2	368	116.767023164475	2
2	371	118.08407614238	1
2	374	120.080430682259	0
2	378	120.886427644226	1
2	379	121.56501395523	0
2	386	123.904851339683	1
2	388	124.025961358853	2
2	390	124.317535466248	3
2	391	124.462193100969	2
2	394	126.33216304339	1
2	398	126.779054088959	2
2	399	127.668189875665	1
2	404	128.994325679983	0
2	416	133.420570824703	1
2	417	133.58854222491	0
2	421	135.091047591905	1
2	422	135.387268400635	0
2	426	135.57225539745	1
2	427	137.180134321447	0
2	431	138.2071214493	1
2	432	138.445391155477	0
2	436	139.869374539112	1
2	437	140.31852684978	0
2	441	141.021888957164	1
2	443	141.644739980581	2
2	445	141.784304890106	3
2	446	142.254415182281	2
2	449	143.565988883819	1
2	453	143.587028970152	2
2	455	143.600311668306	3
2	457	144.119722981755	4
2	458	145.017044173438	3
2	461	146.340036338638	2
2	465	147.055937766597	3
2	466	148.244136169809	2
2	470	148.759061314147	3
2	472	149.878650606286	4
2	473	149.987242602813	3
2	476	151.351194418292	2
2	479	152.743650670047	1
2	483	153.746172066102	2
2	485	154.250522508219	3
2	486	154.605940913479	2
2	490	155.738138156485	3
2	491	156.36498891532	2
2	496	157.794628727134	1
2	500	158.953048435956	2
2	502	158.989251543657	3
2	504	159.12456971169	4
2	506	159.396217040249	5
2	507	159.692372338544	4
2	511	160.855907885983	5
2	512	161.532418200258	4
2	516	162.817828086437	5
2	517	163.214410625096	4
2	521	163.276362842831	5
2	523	164.097106787758	6
2	524	164.759062640067	5
2	528	165.182563545154	6
2	529	166.035516092252	5
2	533	167.317595942682	6
2	534	167.870525909472	5
2	538	168.388802954381	6
2	540	169.122554781974	7
2	541	169.690500163916	6
2	545	169.84683588677	7
2	546	171.662734845537	6
2	551	173.54611936051	5
2	555	173.609311725475	6
2	557	174.69244911382	7
2	558	175.322240347486	6
2	561	176.633581558127	5
2	565	176.664862574925	6
2	566	177.878094794858	5
2	569	179.36349134564	4
2	573	179.778815198624	5
2	575	180.797024391488	6
2	576	181.189697370004	5
2	580	181.427576641068	6
2	582	181.926530301041	7
2	583	182.771242781427	6
2	587	183.414719303105	7
2	588	184.634443643201	6
2	592	184.74213424819	7
2	593	186.476706019301	6
2	596	187.726529602405	5
2	599	189.633922745172	4
2	603	189.711158225373	5
2	605	190.222811688471	6
2	606	191.190570887994	5
2	610	191.657668955359	6
2	611	192.451767912578	5
2	615	193.535238524915	6
2	616	193.987981109206	5
2	620	194.176239339239	6
2	621	195.334998961982	5
2	624	196.884084631388	4
2	628	197.848296338882	5
2	629	198.577448860814	4
2	632	200.273859006425	3
2	635	201.772108209019	2
2	638	203.467097475824	1
2	642	203.991134661239	2
2	643	204.792893198391	1
2	647	204.813842942432	2
2	649	206.166667205218	3
2	651	206.399291238267	4
2	652	206.48685654409	3
2	656	206.585630118855	4
2	658	206.97533860731	5
2	660	207.345069738676	6
2	661	207.711599901204	5
2	665	207.72957245868	6
2	666	208.912196317387	5
2	670	208.955288662245	6
2	671	210.865727808212	5
2	675	211.319362958482	6
2	676	212.195744361428	5
2	679	213.615226094124	4
2	683	213.788774461831	5
2	685	214.432141258493	6
2	687	214.997166478829	7
2	688	215.604047174637	6
2	692	216.298262481035	7
2	693	217.296198739555	6
2	697	217.575294600989	7
2	699	217.727715067464	8
2	700	218.847735961598	7
2	704	220.120093424792	8
2	705	220.669145589021	7
2	708	222.051315907461	6
2	712	222.876380736332	7
2	713	223.903141838384	6
2	717	224.878088643394	7
2	718	225.613584143554	6
2	722	225.617534501815	7
2	724	225.61820500408	8
2	726	225.899185231512	9
2	727	227.562361886983	8
2	731	227.833260813424	9
2	733	227.837700747505	10
2	734	229.323977987354	9
2	737	230.576673894448	8
2	741	230.647963130422	9
2	743	231.403999525159	10
2	744	232.037685098758	9
2	748	232.043670893766	10
2	749	233.318147268964	9
2	753	234.293949067805	10
2	754	235.082992214596	9
2	757	236.332224789893	8
2	761	236.628759734448	9
2	763	236.820996722062	10
2	764	238.203347515946	9
2	767	239.502673582991	8
2	771	240.570454680815	9
2	772	241.291228292955	8
2	775	242.997352908624	7
2	779	243.874851668219	8
2	780	244.992968930004	7
2	783	246.460315307302	6
2	786	248.323060847332	5
2	790	249.06385009558	6
2	791	249.556716463414	5
2	794	251.393777275902	4
2	798	251.782991677774	5
2	800	252.6096014742	6
2	801	252.678370475095	5
2	805	254.237175710091	6
2	806	254.542266504351	5
2	810	255.952398025109	6
2	811	256.366269082274	5
2	815	256.534844597944	6
2	816	257.719295715239	5
2	820	258.889121865088	6
2	821	259.616487351503	5
2	824	260.8588673678	4
2	827	262.711882766779	3
2	831	263.222492554077	4
2	833	263.290889006036	5
2	835	263.884363265284	6
2	837	264.174112718191	7
2	838	264.570469612885	6
2	842	266.141090177967	7
2	843	266.342378946837	6
2	846	267.873914035294	5
2	849	269.705149440352	4
2	853	269.734863382898	5
2	855	270.706853875353	6
2	856	270.976011725214	5
2	860	271.732757055888	6
2	861	272.907516076301	5
2	864	274.828084774759	4
2	868	274.929924240125	5
2	870	275.299082169319	6
2	871	276.563114838373	5
2	875	277.283714740177	6
2	876	278.479706460308	5
2	880	279.737341412096	6
2	881	280.41556294791	5
2	884	282.394031290035	4
2	887	283.639391400176	3
2	891	284.898617435142	4
2	893	285.069544923675	5
2	894	285.271289115655	4
2	900	286.579544535833	5
2	901	286.945268284785	4
2	905	287.855002569218	5
2	907	287.960999758272	6
2	908	288.8190612667	5
2	912	289.364200015334	6
2	914	290.310189005337	7
2	915	290.652013865741	6
2	919	291.158851684651	7
2	920	292.070040625403	6
2	924	292.224697504	7
2	925	293.74756431512	6
2	928	295.45253400437	5
2	931	297.114113920437	4
2	934	298.834627658011	3
2	938	299.435936925347	4
2	940	299.978883215303	5
2	941	300.469171220319	4
2	945	300.547193133074	5
2	947	301.11990445783	6
2	949	301.396030261052	7
2	950	302.364014925876	6
2	954	302.467961761571	7
2	956	303.304523613954	8
2	957	304.116785888815	7
2	961	304.861252277275	8
2	963	305.626364564629	9
2	964	305.662326142633	8
2	968	305.869917429663	9
2	969	307.440279904635	8
2	972	308.808045056344	7
2	976	308.824781814566	8
2	978	309.076563534929	9
2	979	310.181354871088	8
2	983	310.814550349667	9
2	984	311.837521466122	8
2	987	313.523396453516	7
2	991	314.269392470255	8
2	992	315.488214978458	7
2	995	317.004263610275	6
2	999	317.378213860051	7
2	1000	318.799952765995	6
2	1004	318.93232035619	7
2	1006	320.301101812572	8
2	1007	320.717681442642	7
2	1011	321.159028468115	8
2	1012	322.310530491614	7
2	1015	324.110386849263	6
2	1019	324.494273816534	7
2	1020	325.426862873578	6
2	1024	326.044998535957	7
2	1026	326.506216453829	8
2	1027	326.693320586228	7
2	1031	327.643852080769	8
2	1032	328.135576453687	7
2	1035	329.795502896675	6
2	1039	330.025866120939	7
2	1040	331.055282823251	6
2	1044	331.948159377916	7
2	1046	332.631644871488	8
2	1047	332.714019847543	7
2	1051	333.292871660103	8
2	1052	334.354685926692	7
2	1055	335.980988994868	6
2	1058	337.611873254993	5
2	1062	338.279610852676	6
2	1064	338.352571383422	7
2	1066	339.090244914298	8
2	1067	339.386295297065	7
2	1071	340.671900152349	8
2	1072	340.921809656241	7
2	1075	342.452704847858	6
2	1078	344.384288637594	5
2	1081	346.297427576662	4
2	1085	346.639555885799	5
2	1087	346.819596992655	6
2	1089	347.376585194955	7
2	1090	348.181866137938	6
2	1094	348.308133934249	7
2	1095	349.962800535442	6
2	1099	351.062100313409	7
2	1100	351.167646169359	6
2	1104	351.240880230441	7
2	1105	352.739275751332	6
2	1108	353.944631126778	5
2	1112	354.642330749024	6
2	1113	355.576431722449	5
2	1116	357.574621745268	4
2	1120	358.861495977596	5
2	1121	359.485640047373	4
2	1125	359.834695594546	5
2	1126	361.422015583025	4
2	1129	362.961333381267	3
2	1133	363.96536665928	4
2	1134	364.656795197421	3
2	1138	365.213427881517	4
2	1139	366.470994816416	3
2	1143	366.558832737721	4
2	1145	367.90236830419	5
2	1146	367.986796315641	4
2	1151	369.216505878859	3
2	1155	369.498559626943	4
2	1157	370.1317604197	5
2	1159	370.85163201856	6
2	1160	370.925031762824	5
2	1164	371.408331348799	6
2	1165	372.543819390491	5
2	1169	373.455771629654	6
2	1170	374.348242970437	5
2	1174	374.429685184115	6
2	1176	375.370348599932	7
2	1177	375.670213579081	6
2	1180	377.100593307123	5
2	1184	377.139830704443	6
2	1185	379.009780835987	5
2	1189	379.49372434357	6
2	1190	380.578496051089	5
2	1194	381.241773870024	6
2	1195	382.561220170253	5
2	1199	383.364679974924	6
2	1201	383.980027804507	7
2	1202	384.472271391817	6
2	1206	384.535262222081	7
2	1207	386.403100041368	6
2	1210	387.700377885693	5
2	1214	388.182706828867	6
2	1216	388.305880117561	7
2	1217	389.470021431589	6
2	1221	390.102795109944	7
2	1222	391.121078831212	6
2	1226	391.530221064676	7
2	1227	392.548170175472	6
2	1230	393.915891034411	5
2	1234	394.856528643619	6
2	1235	395.51135469179	5
2	1239	395.862160216446	6
2	1240	397.244301720591	5
2	1244	397.428613974942	6
2	1246	397.842059506788	7
2	1247	399.040594395132	6
2	1251	399.674990037971	7
2	1254	400.579887115278	6
2	1258	400.778673332348	7
2	1259	402.220799894699	6
2	1265	403.969705985382	7
2	1266	404.011226156981	6
2	1269	405.270173086481	5
2	1272	406.893321944283	4
2	1276	407.634027955539	5
2	1277	408.199916077846	4
2	1281	408.997191877561	5
2	1283	409.269236162746	6
2	1284	409.947357414545	5
2	1288	410.317248301653	6
2	1289	411.42053872093	5
2	1293	411.448299944457	6
2	1295	411.567761890776	7
2	1297	412.407603850705	8
2	1298	413.161341513949	7
2	1302	413.380487807026	8
2	1303	414.560293459589	7
2	1307	415.388736577573	8
2	1308	416.52768077671	7
2	1312	416.767174224682	8
2	1313	418.466774154337	7
2	1317	418.523624785403	8
2	1319	419.610066600922	9
2	1320	420.259859887766	8
2	1324	421.247071987213	9
2	1325	421.53544235907	8
2	1328	422.877654319885	7
2	1331	424.634059352125	6
2	1335	425.708265595881	7
2	1337	426.261626440122	8
2	1338	426.318227851647	7
2	1341	428.288566416944	6
2	1345	428.949800100639	7
2	1346	429.776258493843	6
2	1350	430.0877652058	7
2	1352	430.918837410996	8
2	1353	431.263786016474	7
2	1357	432.249951937209	8
2	1359	432.784318460221	9
2	1360	432.957578942249	8
2	1363	434.558667643065	7
2	1367	435.76488599874	8
2	1368	435.872175984526	7
2	1371	437.844780986825	6
2	1375	438.873939658157	7
2	1376	439.760660495864	6
2	1380	440.084322460054	7
2	1382	440.105076229167	8
2	1383	441.188141202623	7
2	1387	442.694948938452	8
2	1388	442.747064062277	7
2	1392	443.283312065119	8
2	1393	444.639854916068	7
2	1397	444.889942523798	8
2	1398	446.144527805666	7
2	1401	447.853133806097	6
2	1405	448.055447968302	7
2	1406	449.230543333175	6
2	1410	450.205432970996	7
2	1412	450.393188865164	8
2	1413	450.829587510297	7
2	1417	451.227264236154	8
2	1419	452.227189749827	9
2	1420	452.688023682194	8
2	1424	452.846091389027	9
2	1425	453.965669534611	8
2	1429	454.488305804308	9
2	1430	455.853215631167	8
2	1434	456.118709414787	9
2	1435	457.740441288123	8
2	1439	458.094419754121	9
2	1441	458.294076297867	10
2	1443	459.270376833479	11
2	1444	459.58373417172	10
2	1447	461.57245558414	9
2	1451	461.749827789204	10
2	1452	462.818249026009	9
2	1455	464.322026029111	8
2	1459	464.56387474414	9
2	1460	466.024677564086	8
2	1464	466.584223891132	9
2	1465	467.903643071161	8
2	1469	469.169721847668	9
2	1470	469.77512889474	8
2	1473	471.622098528848	7
2	1476	473.02057613998	6
2	1480	473.706727188342	7
2	1481	474.948177372173	6
2	1485	474.971046428508	7
2	1487	475.000919477414	8
2	1489	476.00028587539	9
2	1490	476.250904633545	8
2	1494	476.49051308193	9
2	1495	477.724167318896	8
2	1499	477.93968427972	9
2	1500	479.006148732521	8
2	1504	479.286811419665	9
2	1505	480.346549225293	8
2	1509	480.458296579189	9
2	1511	481.006140109749	10
2	1513	481.027442436639	11
2	1514	481.678129166618	10
2	1518	481.929427185379	11
2	1521	483.571735752255	10
2	1525	484.530015009673	11
2	1526	485.161628279902	10
2	1529	486.755626228332	9
2	1533	487.138393492083	10
2	1534	488.170807655781	9
2	1538	488.190948627784	10
2	1540	489.637695568787	11
2	1541	489.809741392053	10
2	1545	490.537449840901	11
2	1546	491.07343157462	10
2	1549	492.944236037574	9
2	1553	493.100702998294	10
2	1554	494.813858959331	9
2	1558	495.906455158101	10
2	1559	496.75466659206	9
2	1562	498.393632038376	8
2	1566	498.980044825439	9
2	1567	499.814814684606	8
2	1571	500.006832263573	9
2	1573	500.046642810103	10
2	1574	501.73562632396	9
2	1578	501.816138244512	10
2	1579	503.018230776369	9
2	1582	504.559749651022	8
2	1586	506.143078682728	9
2	1587	506.302341040849	8
2	1590	507.754882331818	7
2	1594	509.526604668487	8
2	1595	509.643815119818	7
2	1599	510.578181352312	8
2	1601	510.808832248709	9
2	1603	510.963125661617	10
2	1604	511.40785879127	9
2	1608	512.12107914108	10
2	1609	512.66111478179	9
2	1613	513.138922299003	10
2	1614	513.955644436062	9
2	1618	514.101141417562	10
2	1619	515.907210743867	9
2	1623	516.045168331892	10
2	1624	517.662158317186	9
2	1628	518.773460986873	10
2	1629	519.185426457293	9
2	1633	519.675384922253	10
2	1635	519.901193461151	11
2	1636	520.776996160179	10
2	1640	521.908391750213	11
2	1641	522.102389163963	10
2	1645	522.564725545089	11
2	1646	523.695720282264	10
2	1650	525.240391451837	11
2	1651	525.676508698121	10
2	1655	526.291555579556	11
2	1657	526.741106609535	12
2	1658	527.053689198077	11
2	1662	527.753855646742	12
2	1663	528.737623513371	11
2	1667	529.075609030997	12
2	1668	530.635247986272	11
2	1671	532.625256044112	10
2	1675	533.854541756782	11
2	1677	534.108254534957	12
2	1678	534.435046765275	11
2	1682	535.048463840394	12
2	1683	535.983112400464	11
2	1686	537.398991779677	10
2	1690	537.781099357583	11
2	1691	539.12601518321	10
2	1695	539.368128389347	11
2	1696	540.716325666263	10
2	1700	540.979523326972	11
2	1701	541.999402622945	10
2	1704	543.375501218505	9
2	1707	545.359008693389	8
2	1711	545.473356118985	9
2	1713	545.484061433567	10
2	1714	546.660947692647	9
2	1717	548.161840596117	8
2	1720	550.010589886337	7
2	1724	550.984587241262	8
2	1726	551.042276538267	9
2	1728	551.182796353255	10
2	1729	551.216423588499	9
2	1733	551.58357729656	10
2	1734	552.972043746218	9
2	1738	553.138359390158	10
2	1740	554.006002087488	11
2	1742	554.575008096043	12
2	1743	554.855101667598	11
2	1747	554.855757585231	12
2	1749	555.443072589981	13
2	1750	556.236364767581	12
2	1753	557.710602879964	11
2	1756	559.039867016368	10
2	1760	560.215247879062	11
2	1762	560.405559052378	12
2	1763	560.887608534538	11
2	1766	562.763577765667	10
2	1770	563.125948597839	11
2	1772	563.606765200549	12
2	1776	563.822960650746	13
2	1778	564.029690159672	14
2	1779	564.340160656602	13
2	1782	566.176152358272	12
2	1786	566.764321566005	13
2	1787	567.856162132391	12
2	1791	568.142344434225	13
2	1792	569.424621829831	12
2	1795	570.944839849205	11
2	1798	572.25299357164	10
2	1801	573.665946764939	9
2	1804	574.867004790038	8
2	1808	575.62697850831	9
2	1810	576.381216980941	10
2	1812	576.506364901015	11
2	1813	576.589727389135	10
2	1817	576.866344608182	11
2	1818	578.155909740434	10
2	1821	579.680791727894	9
2	1824	581.430231684328	8
2	1828	582.228279755414	9
2	1829	582.98580573655	8
2	1833	583.790511868585	9
2	1835	583.927490611973	10
2	1836	584.812238013998	9
2	1840	585.700317094697	10
2	1842	586.062278254675	11
2	1843	586.361862988092	10
2	1847	587.089402087334	11
2	1848	587.575985080071	10
2	1852	587.943545087457	11
2	1854	589.106615937637	12
2	1855	589.334294619665	11
2	1859	589.662770205169	12
2	1860	590.56987662229	11
2	1864	590.974672410943	12
2	1865	592.454805541665	11
2	1868	593.869019287706	10
2	1872	593.908630772367	11
2	1873	595.279571223513	10
2	1876	597.257743609392	9
2	1880	597.888741598375	10
2	1881	599.028891945884	9
2	1885	599.450413597333	10
2	1887	600.046337974804	11
2	1888	600.620901271023	10
2	1891	602.574384011395	9
2	1895	603.501927374164	10
2	1896	604.16644374977	9
2	1900	604.701845933138	10
2	1901	605.950043125331	9
2	1904	607.357487202875	8
2	1907	609.098484651625	7
2	1911	609.780038683852	8
2	1913	610.25992016117	9
2	1914	610.838137679241	8
2	1920	611.699872647768	9
2	1921	612.62806593652	8
2	1924	614.24932871095	7
2	1927	615.620643048241	6
2	1931	616.094137515229	7
2	1933	616.313377486441	8
2	1934	617.080157448604	7
2	1938	617.974848950233	8
2	1940	618.11077724203	9
2	1941	618.645743915319	8
2	1945	618.715919950429	9
2	1947	619.724772140303	10
2	1948	620.393036727301	9
2	1952	620.539139287118	10
2	1953	621.994852685622	9
2	1957	623.357569399341	10
2	1958	623.479319362222	9
2	1961	625.13129120811	8
2	1965	625.318227443474	9
2	1966	626.816038216717	8
2	1970	627.048698025249	9
2	1971	628.355109445072	8
2	1974	629.903403203815	7
2	1978	629.904604359938	8
2	1979	631.454964945346	7
2	1983	631.989485662523	8
2	1985	632.133467287183	9
2	1987	632.626934381629	10
2	1988	633.336056208864	9
2	1991	634.726840432428	8
2	1995	635.532064578632	9
2	1997	635.894312318277	10
2	1998	636.007054041952	9
2	2001	637.307487469234	8
2	2005	638.833322250702	9
2	2006	638.840679386698	8
2	2009	640.265557046488	7
2	2013	641.398374479318	8
2	2014	642.150232628428	7
2	2018	642.678728079763	8
2	2020	642.926001789126	9
2	2022	643.390016601874	10
2	2023	643.507101476633	9
2	2027	644.338790604192	10
2	2029	644.899938865557	11
2	2030	645.478235974976	10
2	2034	646.853213917118	11
2	2035	647.304478787885	10
2	2038	649.105985259519	9
2	2043	650.540831615658	8
2	2046	651.888164205731	7
2	2050	652.350410672776	8
2	2053	653.414677861215	7
2	2057	653.459269960601	8
2	2059	653.625164730851	9
2	2060	654.618292559565	8
2	2064	655.09198114989	9
2	2066	655.439719696496	10
2	2068	655.677054827214	11
2	2069	656.225221578286	10
2	2073	657.662074658541	11
2	2074	658.09700525801	10
2	2077	659.330241206729	9
2	2081	659.369492527689	10
2	2082	660.592341537097	9
2	2086	661.561814713174	10
2	2087	662.069067376175	9
2	2091	662.924366562235	10
2	2092	663.675202084028	9
2	2096	664.092528439535	10
2	2097	664.93914800498	9
2	2100	666.153639678539	8
2	2104	666.850867982367	9
2	2106	667.691477835627	10
2	2107	667.783942673237	9
2	2110	669.494709417478	8
2	2114	669.760454361682	9
2	2118	670.315756310178	10
2	2119	670.950728909925	9
2	2123	672.138374654997	10
2	2124	672.374204160527	9
2	2128	672.445608337817	10
2	2129	673.714729558372	9
2	2133	674.381759706778	10
2	2134	675.642292863757	9
2	2138	676.512633664104	10
2	2139	677.130602571622	9
2	2142	679.068503783711	8
2	2146	679.591405443687	9
2	2147	680.576291967624	8
2	2150	682.009671001018	7
2	2153	683.445621817627	6
2	2157	684.59910243444	7
2	2159	684.616937019389	8
2	2160	684.650621927225	7
2	2163	686.402836493098	6
2	2167	686.983567853163	7
2	2168	687.849746644006	6
2	2172	688.37085353309	7
2	2173	689.198781195537	6
2	2176	690.689003490538	5
2	2180	691.132381275405	6
2	2182	691.902774130785	7
2	2184	691.904679129365	8
2	2185	692.146896516972	7
2	2189	693.310943761117	8
2	2190	693.413760597327	7
2	2193	694.628591946208	6
2	2197	695.750268488774	7
2	2198	695.966965710812	6
2	2202	696.690853970932	7
2	2203	697.600725861893	6
2	2207	697.68778511126	7
2	2209	698.631279081652	8
2	2210	699.083689576455	7
2	2214	699.167810715893	8
2	2216	699.390497090451	9
2	2217	701.063202699528	8
2	2221	701.582735201184	9
2	2222	703.004277297364	8
2	2225	704.72242040492	7
2	2229	706.081282783503	8
2	2230	706.512229369277	7
2	2234	707.565289088977	8
2	2235	707.868272372404	7
2	2239	708.068711367536	8
2	2241	708.444032611593	9
2	2242	709.277075463416	8
2	2246	709.621757603697	9
2	2247	710.545036858017	8
2	2250	712.40033100571	7
2	2253	714.100706996466	6
2	2257	714.382786857607	7
2	2259	714.995731698387	8
2	2260	715.518306030217	7
2	2264	715.846852566082	8
2	2266	716.061130992254	9
2	2268	717.265471970882	10
2	2269	717.345360706444	9
2	2273	717.56814011729	10
2	2274	718.675766060199	9
2	2277	720.372407816793	8
2	2281	721.848229163603	9
2	2282	722.355026437412	8
2	2286	722.947692460073	9
2	2288	723.437404896021	10
2	2290	724.236582661472	11
2	2291	724.33249941289	10
2	2295	724.650535998074	11
2	2296	725.935421958822	10
2	2300	726.515521649922	11
2	2301	727.466545299883	10
2	2305	727.510346609052	11
2	2306	729.054855234805	10
2	2310	729.461684771096	11
2	2311	730.6608637464	10
2	2314	731.899862179789	9
2	2317	733.82345648061	8
2	2321	734.062235940919	9
2	2322	735.142303906265	8
2	2326	735.512729755891	9
2	2328	736.509067592743	10
2	2329	736.542305380549	9
2	2333	737.995518544117	10
2	2335	738.219155628871	11
2	2336	738.223458509218	10
2	2340	738.823516366327	11
2	2341	739.552359323647	10
2	2345	740.900292528634	11
2	2346	741.320906795632	10
2	2350	743.219276390896	11
2	2351	743.29000315338	10
2	2355	743.336535858249	11
2	2356	745.076414109278	10
2	2359	747.071891027573	9
2	2362	748.719123805943	8
2	2366	749.277786187261	9
2	2368	750.227712096975	10
2	2369	750.378805118124	9
2	2372	751.800738125178	8
2	2376	752.881447285385	9
2	2377	753.498450480285	8
2	2380	754.750713627855	7
2	2384	755.793488261994	8
2	2385	756.555187378707	7
2	2389	756.941788909957	8
2	2391	757.155801658476	9
2	2392	758.261376750911	8
2	2395	759.49192705478	7
2	2399	760.803195138853	8
2	2400	761.097872694465	7
2	2404	762.564993771994	8
2	2405	762.647797613474	7
2	2409	764.074062154477	8
2	2411	764.469276666131	9
2	2413	764.524297397497	10
2	2414	764.536934260535	9
2	2418	765.250710434181	10
2	2420	765.965012506314	11
2	2421	766.224856677349	10
2	2426	768.021656566183	9
2	2429	769.837296720105	8
2	2433	770.157292736051	9
2	2435	770.987604234544	10
2	2436	771.183691539685	9
2	2440	771.790377387266	10
2	2441	772.425101555767	9
2	2445	773.022907399992	10
2	2447	773.600422865237	11
2	2448	773.896860769647	10
2	2451	775.741180620226	9
2	2455	776.255259176498	10
2	2457	776.735708895427	11
2	2459	776.827328096226	12
2	2460	777.194545318629	11
2	2464	777.220482666654	12
2	2465	778.533112810064	11
2	2469	778.9055471939	12
2	2470	780.292616412114	11
2	2474	781.792224065321	12
2	2475	781.828439873155	11
2	2478	783.498117447343	10
2	2481	784.984234006774	9
2	2485	785.682397117713	10
2	2487	786.187646369485	11
2	2488	786.332536018152	10
2	2492	786.634518719175	11
2	2493	788.241791699339	10
2	2496	789.829928666983	9
2	2502	790.525738481431	10
2	2503	791.658322635364	9
2	2507	791.65986939569	10
2	2508	793.432777446952	9
2	2512	794.077303417583	10
2	2513	794.752651585151	9
2	2517	794.911874511566	10
2	2518	796.006328425441	9
2	2522	796.386918446947	10
2	2524	797.367346698622	11
2	2525	797.608667167533	10
2	2528	799.584360266175	9
2	2532	799.969515836498	10
2	2534	800.789036748726	11
2	2535	801.583197547752	10
2	2539	802.298635166928	11
2	2540	802.949770524237	10
2	2543	804.616738263029	9
2	2547	805.299891108991	10
2	2549	805.987486252986	11
2	2550	806.098230352882	10
2	2553	807.721212309111	9
2	2557	808.605428806019	10
2	2558	809.416629999388	9
2	2561	810.98509433705	8
2	2565	812.388684258817	9
2	2566	812.392895262946	8
2	2569	813.806120139804	7
2	2573	814.011250463111	8
2	2575	815.273888447894	9
2	2576	815.528087079969	8
2	2580	815.689034368565	9
2	2582	817.35237517126	10
2	2583	817.365079595965	9
2	2587	817.949716530597	10
2	2588	819.333419922066	9
2	2592	819.599996041327	10
2	2594	819.644918267692	11
2	2595	821.152625899647	10
2	2598	822.796935709265	9
2	2601	824.685725728122	8
2	2604	826.325214620752	7
2	2610	827.309919813788	8
2	2611	827.760583344174	7
2	2614	829.371274880019	6
2	2617	830.973660767336	5
2	2621	832.633753027006	6
2	2622	832.909228431877	5
2	2626	833.325718686633	6
2	2628	833.463684460032	7
2	2630	833.490568236611	8
2	2632	833.837723679058	9
2	2633	834.149817782525	8
2	2637	834.177475685936	9
2	2638	835.770482772287	8
2	2642	835.874824910981	9
2	2644	836.387020079147	10
2	2645	837.316820130568	9
2	2649	837.888415155621	10
2	2650	839.15940986469	9
2	2654	839.671209452781	10
2	2656	839.832145601375	11
2	2657	840.380554989423	10
2	2660	841.687518257345	9
2	2664	842.26350364817	10
2	2666	842.278995585288	11
2	2668	843.415104547588	12
2	2669	843.658091768506	11
2	2672	844.901745210658	10
2	2675	846.41068659022	9
2	2679	847.290736140868	10
2	2681	847.846298437898	11
2	2682	848.396112169768	10
2	2686	848.823119105455	11
2	2687	850.334242331307	10
2	2691	850.919568433545	11
2	2692	851.932864690829	10
2	2696	853.380186910191	11
2	2697	853.795911671106	10
2	2700	855.52280644111	9
2	2704	856.035319314796	10
2	2705	856.889468497668	9
2	2708	858.588757577051	8
2	2712	858.596267477427	9
2	2713	860.109465365556	8
2	2717	860.32863099685	9
2	2719	860.685035982104	10
2	2720	861.454842667912	9
2	2724	862.641045433856	10
2	2725	862.814516637732	9
2	2729	863.343943285927	10
2	2731	863.818020240247	11
2	2734	864.777977526259	10
2	2738	865.126917202	11
2	2739	866.18443106867	10
2	2742	867.831779478561	9
2	2746	869.0484018706	10
2	2747	869.515275423858	9
2	2750	870.984704055335	8
2	2754	871.442551062913	9
2	2755	872.697799405712	8
2	2759	874.414814580016	9
2	2761	874.453410806254	10
2	2762	874.549132615771	9
2	2765	876.159441107768	8
2	2769	877.468463230373	9
2	2770	877.494490345638	8
2	2774	877.998003434711	9
2	2775	879.346179648373	8
2	2778	881.076013148647	7
2	2783	882.473728674162	6
2	2786	884.412701784145	5
2	2790	884.822956002708	6
2	2792	884.999097614943	7
2	2796	885.333013850485	8
2	2797	886.351972629387	7
2	2801	886.52176659989	8
2	2803	886.598025621755	9
2	2804	888.011966851611	8
2	2807	890.007867194038	7
2	2810	891.84866286337	6
2	2814	893.057683577389	7
2	2815	893.518244983513	6
2	2819	893.627326974356	7
2	2821	893.658956899104	8
2	2823	894.011688091435	9
2	2825	894.445713410403	10
2	2826	895.032102667052	9
2	2830	896.492761251071	10
2	2831	896.955289587822	9
2	2835	897.115024826066	10
2	2837	897.495464135299	11
2	2839	897.760470657274	12
2	2841	897.888572964569	13
2	2842	898.417131753896	12
2	2845	900.151248259169	11
2	2849	900.577323134833	12
2	2850	901.58032441016	11
2	2853	903.233646301811	10
2	2857	903.647196769605	11
2	2859	903.78474858401	12
2	2860	904.669044160542	11
2	2863	906.489472431761	10
2	2867	908.055070867671	11
2	2868	908.396008773406	10
2	2872	908.839084847508	11
2	2873	910.092657680136	10
2	2877	910.445354768553	11
2	2878	911.334890099128	10
2	2882	912.21172617382	11
2	2883	912.900975121816	10
2	2887	913.03997088736	11
2	2888	914.349327921567	10
2	2891	915.964432810505	9
2	2894	917.291417390552	8
2	2898	917.493712414196	9
2	2900	918.22965594335	10
2	2902	918.597450336733	11
2	2903	918.986634844427	10
2	2907	919.241567130553	11
2	2909	920.40929685673	12
2	2910	920.537001483773	11
2	2913	921.75620967753	10
2	2916	923.481763186192	9
2	2919	925.161518577373	8
2	2923	926.258492035605	9
2	2924	926.959635826087	8
2	2928	927.293675932465	9
2	2930	927.294229691912	10
2	2934	927.768042687099	11
2	2935	928.368934597707	10
2	2939	928.577320868028	11
2	2941	928.908501734015	12
2	2942	930.327170085794	11
2	2946	930.501808462161	12
2	2947	931.82944264978	11
2	2950	933.261644272207	10
2	2954	934.884999090543	11
2	2955	934.941622160076	10
2	2959	936.629234393744	11
2	2960	936.736050620748	10
2	2963	938.570406582093	9
2	2967	938.960871139437	10
2	2969	939.637467634004	11
2	2972	940.148763453661	10
2	2976	940.688875660858	11
2	2977	941.936880684158	10
2	2981	941.938678880125	11
2	2983	942.25074671113	12
2	2984	943.187425423114	11
2	2987	945.154071717224	10
2	2991	945.592721222706	11
2	2992	947.064805256463	10
2	2996	948.2070109525	11
2	2997	948.685249062329	10
2	3001	950.132230943021	11
2	3002	950.351101326085	10
2	3006	951.529024657414	11
2	3008	951.68889241741	12
2	3009	952.028026911318	11
2	3013	952.620444573913	12
2	3015	953.531999702695	13
2	3016	953.684155109599	12
2	3020	953.982687068105	13
2	3021	955.634476785436	12
2	3024	957.01622115232	11
2	3028	958.636301777164	12
2	3029	959.009162702485	11
2	3033	959.471604479909	12
2	3034	960.349708419739	11
2	3038	960.906670430296	12
2	3039	962.275822550877	11
2	3043	962.767673016177	12
2	3044	963.647374489791	11
2	3048	963.984926906892	12
2	3049	965.277733042537	11
2	3052	966.570722224823	10
2	3056	967.961968197427	11
2	3057	967.982407120689	10
2	3060	969.944228520504	9
2	3064	970.234694442398	10
2	3066	970.691496367401	11
2	3067	971.800230391583	10
2	3071	972.147774160152	11
2	3072	973.567458872943	10
2	3075	974.957914078682	9
2	3078	976.255815366729	8
2	3082	977.154661595517	9
2	3083	977.64823157776	8
2	3087	978.357307861981	9
2	3089	979.005709863516	10
2	3090	979.050368079057	9
2	3094	979.113957061351	10
2	3096	979.300411120862	11
2	3098	979.501078613252	12
2	3100	979.96329158715	13
2	3101	980.929301458856	12
2	3105	981.50134666557	13
2	3106	982.211199762372	12
2	3110	983.705936730634	13
2	3111	983.863608266299	12
2	3117	985.189090475007	13
2	3118	985.587955484053	12
2	3123	987.216848937495	11
2	3126	988.707835676967	10
2	3130	989.419357333506	11
2	3132	989.480712584382	12
2	3133	990.259118442311	11
2	3137	991.354770876847	12
2	3138	991.796994832418	11
2	3142	991.911732026129	12
2	3144	992.032215692169	13
2	3146	992.636081196054	14
2	3147	993.413243655189	13
2	3150	994.673664259239	12
2	3153	996.139740690104	11
2	3157	997.052647897595	12
2	3158	997.491253789961	11
2	3162	998.099743404676	12
2	3163	999.281044964753	11
2	3167	999.457528570193	12
2	3169	1000.379875786509	13
2	3170	1000.970333917327	12
2	3174	1002.164258343938	13
2	3175	1002.447093015425	12
2	3178	1004.44178642042	11
2	3181	1006.155632957705	10
2	3185	1006.328597057763	11
2	3187	1006.640564589779	12
2	3188	1008.032600812503	11
2	3193	1009.876883178466	10
2	3197	1010.804781606612	11
2	3200	1011.609178227075	10
2	3204	1012.114968280394	11
2	3206	1012.594143312572	12
2	3208	1012.718154426946	13
2	3209	1013.303589119278	12
2	3213	1013.358773940664	13
2	3214	1014.52265578907	12
2	3218	1014.6176800325	13
2	3220	1015.685013803966	14
2	3221	1016.455142059624	13
2	3224	1017.698826621361	12
2	3228	1018.322889613289	13
2	3229	1019.655055445693	12
2	3233	1019.724722803553	13
2	3235	1019.993900069008	14
2	3237	1021.30258902473	15
2	3239	1021.449044202208	16
2	3240	1021.632701736204	15
2	3244	1022.100771350456	16
2	3245	1023.622380265295	15
2	3249	1024.79239217038	16
2	3251	1024.991782537321	17
2	3252	1025.111223003715	16
2	3255	1026.55137029428	15
2	3259	1026.798400844267	16
2	3260	1028.297290945686	15
2	3264	1029.09394309427	16
2	3265	1030.145506182015	15
2	3269	1031.280071185685	16
2	3270	1031.58806259118	15
2	3274	1031.888021018967	16
2	3276	1032.150076090705	17
2	3278	1032.796238550536	18
2	3280	1032.94479248696	19
2	3281	1033.079392206743	18
2	3285	1033.187461308946	19
2	3287	1034.307190819414	20
2	3288	1034.997522074803	19
2	3292	1035.365608562987	20
2	3293	1036.397558939903	19
2	3297	1036.532943456881	20
2	3298	1037.838181495926	19
2	3301	1039.497236294931	18
2	3305	1040.118473105871	19
2	3306	1040.811529211587	18
2	3310	1041.364896691928	19
2	3312	1041.528081467975	20
2	3313	1042.39265587598	19
2	3317	1042.576355878521	20
2	3319	1043.527932853143	21
2	3320	1043.945436333566	20
2	3324	1044.030597254996	21
2	3325	1045.733622717558	20
2	3328	1047.493298464342	19
2	3332	1047.867143015248	20
2	3334	1049.216346286116	21
2	3335	1049.260378132275	20
2	3339	1050.275084421702	21
2	3340	1050.669574209748	20
2	3344	1051.473015470329	21
2	3345	1052.29632580716	20
2	3349	1054.104143930722	21
2	3350	1054.234783474429	20
2	3354	1055.987079553479	21
2	3355	1056.048939571603	20
2	3358	1057.268171146585	19
2	3362	1058.57565713163	20
2	3363	1058.87818017125	19
2	3367	1060.024791364858	20
2	3368	1060.520273247434	19
2	3372	1061.709335015956	20
2	3373	1061.910484920142	19
2	3376	1063.187339248022	18
2	3380	1063.300861076043	19
2	3382	1063.714788197552	20
2	3383	1065.114288811086	19
2	3387	1065.329485986071	20
2	3389	1065.826966955809	21
2	3390	1066.420214353575	20
2	3394	1067.517923511661	21
2	3395	1068.211539886593	20
2	3399	1069.636651736268	21
2	3400	1069.645477739423	20
2	3404	1069.666729406911	21
2	3406	1070.94457891659	22
2	3407	1070.993097618855	21
2	3411	1071.256479113107	22
2	3413	1071.855582193816	23
2	3414	1072.808540608994	22
2	3418	1072.922604077919	23
2	3420	1074.392145394707	24
2	3421	1074.542123079001	23
2	3425	1075.75610959284	24
2	3426	1076.47316420365	23
2	3430	1077.854411721317	24
2	3431	1077.913476728535	23
2	3434	1079.867425000555	22
2	3438	1080.017628714497	23
2	3440	1080.337865868621	24
2	3442	1080.927521551617	25
2	3443	1081.590824672653	24
2	3446	1082.90259522952	23
2	3449	1084.20197938688	22
2	3453	1084.528815767838	23
2	3454	1085.91587276671	22
2	3458	1086.705684377009	23
2	3459	1087.311951645537	22
2	3463	1087.744404044737	23
2	3464	1089.248983051515	22
2	3468	1089.529773176539	23
2	3469	1091.235498978457	22
2	3472	1092.854214068575	21
2	3476	1093.389973236951	22
2	3477	1094.357536199948	21
2	3481	1095.802845265537	22
2	3482	1096.196635385303	21
2	3486	1097.464458089563	22
2	3487	1097.63738466136	21
2	3491	1097.852681650938	22
2	3492	1099.518515255748	21
2	3496	1100.146637888756	22
2	3497	1101.276168923153	21
2	3500	1102.789690078495	20
2	3504	1103.499822081468	21
2	3505	1104.721401191203	20
2	3508	1106.016233717537	19
2	3512	1106.491550493825	20
2	3513	1107.250968801676	19
2	3516	1108.859770737103	18
2	3519	1110.231631779185	17
2	3522	1111.853752337097	16
2	3526	1111.943800046348	17
2	3527	1113.35276855219	16
2	3531	1114.782873092493	17
2	3532	1115.039560494831	16
2	3536	1115.057507676973	17
2	3538	1115.78640313564	18
2	3540	1115.980035617614	19
2	3541	1116.737922462708	18
2	3545	1116.815932615563	19
2	3546	1118.495151471606	18
2	3550	1119.708912708612	19
2	3551	1119.804715747646	18
2	3555	1120.704929053499	19
2	3557	1121.62125922606	20
2	3558	1121.76699092917	19
2	3562	1123.16212587842	20
2	3563	1123.566288580632	19
2	3567	1124.232505796328	20
2	3569	1124.631447055186	21
2	3570	1125.163928202985	20
2	3574	1126.675038116294	21
2	3576	1126.786732252218	22
2	3577	1127.019396625905	21
2	3581	1127.146969659912	22
2	3582	1128.602427987455	21
2	3585	1130.152076264917	20
2	3589	1130.460494435106	21
2	3591	1131.034112860566	22
2	3592	1131.64322633881	21
2	3595	1133.598849163091	20
2	3599	1133.762752547031	21
2	3600	1135.226856924294	20
2	3604	1136.192804064984	21
2	3605	1136.987646794765	20
2	3609	1138.510153163348	21
2	3610	1138.713293296172	20
2	3614	1139.987103174573	21
2	3615	1140.68021938864	20
2	3619	1141.896066406957	21
2	3620	1141.905880422777	20
2	3624	1142.071497265272	21
2	3626	1142.181035485717	22
2	3627	1143.863437384068	21
2	3631	1144.405503393809	22
2	3633	1144.879691985138	23
2	3634	1145.209253718778	22
2	3638	1146.401870328356	23
2	3639	1146.873746331296	22
2	3642	1148.807545634805	21
2	3646	1148.962402829188	22
2	3647	1150.632676429375	21
2	3650	1152.341176750771	20
2	3653	1154.091378914825	19
2	3657	1154.175695929098	20
2	3659	1154.229296865562	21
2	3661	1154.309206845757	22
2	3662	1155.304143157675	21
2	3666	1155.750832758526	22
2	3667	1156.822557021192	21
2	3671	1158.238385354244	22
2	3672	1158.645908396578	21
2	3676	1159.08878832877	22
2	3677	1160.598016068785	21
2	3680	1162.531360464057	20
2	3684	1163.184837434136	21
2	3685	1164.473374564087	20
2	3689	1164.488444055377	21
2	3690	1165.998679380378	20
2	3694	1166.604411253453	21
2	3696	1167.598461665394	22
2	3697	1167.9929149634	21
2	3701	1168.302689179281	22
2	3702	1169.79239174973	21
2	3706	1171.405239123687	22
2	3707	1171.754420139713	21
2	3710	1172.964693816265	20
2	3713	1174.658311114719	19
2	3716	1176.485856099872	18
2	3720	1176.792549032947	19
2	3722	1177.621767297949	20
2	3724	1177.773392712077	21
2	3725	1177.962785137331	20
2	3728	1179.170547815671	19
2	3731	1180.792930574601	18
2	3735	1181.075923293848	19
2	3737	1181.104413464114	20
2	3739	1181.800359156809	21
2	3740	1182.251504339536	20
2	3744	1183.479428138244	21
2	3745	1183.66400029443	20
2	3748	1185.405108749008	19
2	3752	1185.919684194123	20
2	3754	1186.225706350751	21
2	3755	1187.278705076946	20
2	3758	1188.732389233334	19
2	3762	1189.896926156504	20
2	3763	1190.203672337977	19
2	3767	1190.979090768346	20
2	3768	1191.523475993311	19
2	3771	1193.412139143867	18
2	3774	1194.951501559166	17
2	3778	1195.844950442055	18
2	3780	1196.24940634641	19
2	3781	1196.570961695237	18
2	3785	1196.894081176555	19
2	3787	1198.299440512044	20
2	3788	1198.492102299144	19
2	3791	1199.893708945883	18
2	3795	1200.650512965833	19
2	3797	1200.929629934692	20
2	3798	1201.199910731872	19
2	3802	1202.822518006294	20
2	3803	1203.032968744335	19
2	3806	1204.930693995093	18
2	3809	1206.318415753801	17
2	3812	1207.81808777738	16
2	3816	1208.826293878318	17
2	3817	1209.188774493408	16
2	3820	1210.797663241696	15
2	3824	1211.605753504672	16
2	3825	1212.389644874145	15
2	3828	1213.779951556657	14
2	3832	1214.211696012672	15
2	3833	1215.005014967617	14
2	3837	1215.018300187982	15
2	3839	1215.295431141677	16
2	3840	1216.297610630911	15
2	3843	1217.913909702819	14
2	3847	1218.662819223259	15
2	3849	1219.111998422274	16
2	3851	1219.319220724752	17
2	3852	1219.664879153554	16
2	3856	1221.34775234276	17
2	3857	1221.660415213626	16
2	3860	1223.627309583012	15
2	3864	1223.972688752737	16
2	3866	1224.383703330232	17
2	3867	1224.931668566983	16
2	3871	1225.188850023328	17
2	3873	1225.748535990835	18
2	3874	1226.164413205977	17
2	3877	1227.782872962836	16
2	3881	1227.841143227293	17
2	3883	1228.419270612772	18
2	3884	1229.008686916973	17
2	3887	1230.246755665797	16
2	3891	1230.4043256534	17
2	3892	1231.850763629819	16
2	3896	1232.291823850587	17
2	3897	1233.109831844712	16
2	3901	1234.305715616328	17
2	3903	1234.834085274844	18
2	3905	1234.910023313208	19
2	3906	1234.929300506482	18
2	3910	1234.944816995499	19
2	3911	1236.372917586448	18
2	3914	1238.002613931405	17
2	3918	1238.05172103838	18
2	3919	1239.54677830215	17
2	3922	1241.338851006584	16
2	3926	1241.619431792067	17
2	3931	1242.948155347327	16
2	3934	1244.484226465853	15
2	3938	1244.723960808764	16
2	3939	1246.462726457486	15
2	3943	1246.586250092982	16
2	3945	1247.268603895247	17
2	3946	1248.170412880438	16
2	3949	1250.081658285181	15
2	3953	1251.256956654145	16
2	3955	1251.367693431204	17
2	3957	1251.773949853364	18
2	3958	1251.838684701803	17
2	3962	1252.211056002321	18
2	3963	1253.564238837245	17
2	3966	1255.209775009262	16
2	3969	1256.846795173245	15
2	3972	1258.743862623046	14
2	3976	1259.752592333663	15
2	3978	1259.858779050023	16
2	3979	1259.94846392076	15
2	3983	1260.089634731036	16
2	3984	1261.303632504563	15
2	3988	1262.429950125811	16
2	3989	1262.652362323436	15
2	3993	1262.722803031599	16
2	3994	1264.370075856033	15
2	3998	1265.130135965773	16
2	3999	1265.577881713468	15
2	4003	1266.394397333913	16
2	4004	1267.410025903094	15
2	4008	1268.389266326293	16
2	4009	1268.778082604218	15
2	4013	1269.247588588588	16
2	4014	1270.202462744038	15
2	4017	1271.740283412184	14
2	4021	1273.038027933165	15
2	4022	1273.068129899609	14
2	4026	1273.183912185861	15
2	4027	1274.585422069463	14
2	4032	1276.051437191363	13
2	4036	1276.846218687919	14
2	4038	1277.272566764685	15
2	4039	1277.456105034682	14
2	4043	1277.701715957762	15
2	4044	1278.768396156351	14
2	4047	1280.573503536615	13
2	4051	1281.034912325916	14
2	4053	1281.481663418006	15
2	4054	1282.132828938472	14
2	4057	1283.882189204241	13
2	4061	1284.346116811023	14
2	4063	1284.348861970621	15
2	4064	1285.130211832817	14
2	4068	1286.413068404498	15
2	4069	1286.550737612206	14
2	4073	1288.017203551287	15
2	4075	1288.078398675179	16
2	4076	1288.197789491411	15
2	4080	1289.016012121929	16
2	4081	1289.766295965273	15
2	4085	1290.063526176136	16
2	4086	1291.454717551429	15
2	4090	1291.744858120709	16
2	4091	1293.281246952038	15
2	4095	1294.944893055612	16
2	4096	1295.097695501405	15
2	4100	1295.775263634622	16
2	4101	1296.927277077059	15
2	4104	1298.513429758022	14
2	4108	1299.353754723945	15
2	4109	1300.024403610522	14
2	4113	1300.098869757301	15
2	4114	1301.994099730136	14
2	4117	1303.304719082894	13
2	4120	1304.564493896695	12
2	4124	1306.020041800071	13
2	4125	1306.489434586162	12
2	4128	1307.725513993273	11
2	4131	1309.709804709698	10
2	4134	1311.190244414727	9
2	4138	1311.665830855011	10
2	4140	1312.287979823785	11
2	4142	1312.603219450894	12
2	4143	1313.03383106112	11
2	4147	1313.515905851618	12
2	4148	1314.647581303748	11
2	4152	1315.926011859318	12
2	4154	1315.937422397494	13
2	4155	1316.012632051739	12
2	4159	1316.199096131031	13
2	4161	1316.346648042817	14
2	4163	1317.202466879607	15
2	4165	1317.349065420069	16
2	4167	1317.878947993828	17
2	4168	1317.941195198591	16
2	4171	1319.330329974624	15
2	4175	1320.577869110181	16
2	4176	1320.660959641705	15
2	4179	1322.08663087904	14
2	4183	1322.138289048141	15
2	4184	1323.441869585845	14
2	4188	1323.691877304685	15
2	4190	1324.271771579734	16
2	4191	1325.237699921686	15
2	4195	1325.686661586487	16
2	4196	1327.022656763974	15
2	4200	1327.12283554824	16
2	4201	1328.533415269922	15
2	4205	1329.209694746068	16
2	4206	1329.95927137814	15
2	4210	1330.189563676596	16
2	4211	1331.474868061091	15
2	4215	1331.557762917332	16
2	4217	1332.440562737483	17
2	4219	1332.598559390568	18
2	4220	1333.253992502834	17
2	4223	1334.950158958766	16
2	4226	1336.397542810324	15
2	4230	1336.733590407045	16
2	4232	1337.889051868676	17
2	4233	1338.3745018563	16
2	4236	1339.727263534698	15
2	4240	1340.528370775376	16
2	4243	1341.54239242978	15
2	4247	1342.197259625804	16
2	4248	1343.425619047578	15
2	4252	1343.478209939543	16
2	4253	1345.136592495139	15
2	4257	1345.725685983361	16
2	4259	1346.105129228579	17
2	4260	1346.778428865294	16
2	4263	1348.406424276414	15
2	4267	1349.350651489372	16
2	4268	1349.740820916998	15
2	4271	1351.197103432263	14
2	4274	1352.983912091772	13
2	4278	1353.847925370492	14
2	4279	1354.884042668412	13
2	4283	1355.503655746182	14
2	4285	1356.498215894734	15
2	4286	1356.787955030496	14
2	4290	1357.585729970766	15
2	4292	1358.337073999822	16
2	4293	1358.489204929466	15
2	4296	1359.908745911601	14
2	4300	1360.40422413933	15
2	4302	1360.759780905974	16
2	4303	1361.448497734102	15
2	4307	1362.032730022466	16
2	4309	1363.231993456476	17
2	4310	1363.293063283595	16
2	4314	1363.649519820772	17
2	4315	1365.13263241637	16
2	4318	1367.056906502018	15
2	4321	1368.872054063598	14
2	4324	1370.178222424606	13
2	4328	1370.431933666723	14
2	4329	1372.123349048266	13
2	4333	1372.182612899988	14
2	4335	1372.740196612147	15
2	4337	1372.89351015648	16
2	4338	1373.85848521802	15
2	4341	1375.279024865175	14
2	4344	1376.677743792603	13
2	4348	1377.79992719967	14
2	4349	1378.581809020484	13
2	4353	1379.629040429572	14
2	4354	1380.415433093229	13
2	4358	1381.046059582206	14
2	4359	1381.856014622071	13
2	4363	1382.199072824908	14
2	4364	1383.233557123945	13
2	4368	1383.449952849438	14
2	4369	1384.794636530311	13
2	4375	1385.754908798105	14
2	4377	1385.7657220866	15
2	4378	1386.629312707366	14
2	4382	1387.07972233667	15
2	4383	1387.941849389368	14
2	4386	1389.280940191516	13
2	4389	1390.519387729534	12
2	4393	1391.031955193126	13
2	4395	1391.729497270981	14
2	4396	1392.095334746757	13
2	4399	1393.593263297596	12
2	4403	1393.702970323539	13
2	4405	1393.709161896433	14
2	4407	1393.83361043007	15
2	4409	1394.052012874315	16
2	4410	1394.945977599801	15
2	4414	1395.501930692966	16
2	4415	1396.506254112789	15
2	4419	1396.872022611941	16
2	4420	1398.11061395544	15
2	4423	1400.017456394503	14
2	4427	1400.129875177731	15
2	4428	1401.255048454063	14
2	4432	1401.930127856528	15
2	4433	1403.114806790346	14
2	4437	1403.714468950558	15
2	4438	1404.654899141447	14
2	4442	1405.151298643381	15
2	4443	1406.090140223758	14
2	4446	1407.532371151888	13
2	4449	1409.112895752744	12
2	4453	1409.473586589105	13
2	4455	1410.416329700803	14
2	4456	1411.110859198936	13
2	4459	1412.742220159502	12
2	4463	1413.959649027242	13
2	4464	1414.652937093259	12
2	4468	1415.155579321235	13
2	4469	1416.029635659673	12
2	4473	1416.547457085638	13
2	4475	1417.255122555948	14
2	4477	1417.681545790085	15
2	4478	1417.881227262386	14
2	4482	1418.0807882123	15
2	4484	1419.030897465233	16
2	4485	1419.709354267151	15
2	4489	1421.539245371648	16
2	4490	1421.687206718766	15
2	4494	1422.334169786094	16
2	4496	1422.459747211291	17
2	4497	1423.591895130531	16
2	4501	1424.116941761044	17
2	4502	1425.20776755798	16
2	4506	1426.027641990353	17
2	4507	1426.484644561702	16
2	4512	1427.853427761489	15
2	4516	1427.913646047493	16
2	4518	1429.197258757448	17
2	4519	1429.236936089651	16
2	4523	1429.837164854345	17
2	4524	1430.919592885928	16
2	4528	1431.54013893332	17
2	4529	1432.711743918875	16
2	4533	1433.411278455817	17
2	4534	1434.448196936281	16
2	4538	1435.109262318952	17
2	4539	1435.706416089715	16
2	4543	1437.038543920677	17
2	4544	1437.471158788422	16
2	4547	1439.16578325841	15
2	4551	1439.206659101047	16
2	4553	1439.547270144265	17
2	4556	1440.533433752948	16
2	4560	1441.136752869236	17
2	4561	1441.78527142431	16
2	4565	1443.210590593487	17
2	4566	1443.678596855955	16
2	4570	1444.05670406076	17
2	4571	1444.994705738755	16
2	4575	1445.715808472413	17
2	4576	1446.646695105428	16
2	4580	1446.793653792757	17
2	4582	1447.747175093705	18
2	4583	1448.224302806774	17
2	4587	1449.207264690248	18
2	4588	1449.71597161244	17
2	4592	1449.943166390147	18
2	4593	1451.636264346981	17
2	4597	1452.063090732234	18
2	4599	1453.439458972346	19
2	4600	1453.506777188437	18
2	4604	1453.931448928224	19
2	4607	1454.863260188209	18
2	4611	1455.650730498599	19
2	4612	1456.116007114643	18
2	4616	1456.398043541966	19
2	4618	1457.208646869871	20
2	4619	1457.976117106223	19
2	4623	1459.321735271125	20
2	4624	1459.716494176792	19
2	4628	1460.76765603939	20
2	4629	1461.000333644332	19
2	4633	1462.332255998648	20
2	4634	1462.624360811593	19
2	4638	1464.550573047812	20
2	4639	1464.619646156276	19
2	4643	1464.899546130661	20
2	4644	1465.861647955397	19
2	4648	1466.929008728378	20
2	4649	1467.228403882379	19
2	4653	1468.281018941949	20
2	4654	1468.489688219199	19
2	4660	1469.113716580667	20
2	4662	1470.371983978547	21
2	4663	1470.465174837666	20
2	4666	1472.204678622703	19
2	4669	1473.45354828916	18
2	4673	1474.90387549559	19
2	4674	1475.18263578962	18
2	4678	1475.567920296623	19
2	4679	1476.823956141876	18
2	4682	1478.382483787531	17
2	4686	1479.359148708999	18
2	4687	1479.632187855685	17
2	4690	1480.844686671229	16
2	4694	1482.265901792256	17
2	4696	1482.570653449542	18
2	4697	1482.791487374598	17
2	4701	1483.096028721793	18
2	4702	1484.36685674365	17
2	4706	1484.394904119687	18
2	4707	1486.119400552729	17
2	4711	1486.599616264266	18
2	4714	1487.594477591174	17
2	4718	1489.019541888439	18
2	4719	1489.167082497919	17
2	4723	1489.396683580843	18
2	4725	1489.443180976812	19
2	4727	1489.833599539613	20
2	4728	1490.672422913717	19
2	4732	1491.135736393355	20
2	4733	1492.471516192214	19
2	4737	1492.761756099216	20
2	4738	1493.809357321703	19
2	4741	1495.145216034235	18
2	4745	1496.777099793771	19
2	4746	1496.904175023803	18
2	4750	1497.704841965435	19
2	4752	1498.849090585864	20
2	4753	1498.850896414997	19
2	4757	1500.231227479931	20
2	4758	1500.510702420095	19
2	4762	1500.604383921281	20
2	4763	1502.058843364077	19
2	4766	1503.465031255106	18
2	4769	1505.082309394772	17
2	4772	1506.526348834741	16
2	4776	1507.131736817282	17
2	4778	1507.331827592143	18
2	4780	1507.739539986367	19
2	4781	1508.347025526944	18
2	4785	1509.038739315019	19
2	4786	1509.689933268796	18
2	4789	1511.299156951974	17
2	4793	1512.594676288457	18
2	4794	1513.230607550661	17
2	4798	1513.305900197973	18
2	4800	1514.121470691392	19
2	4801	1514.82712358206	18
2	4804	1516.588072197209	17
2	4807	1517.972827935102	16
2	4811	1518.472164712804	17
2	4812	1519.314648336242	16
2	4816	1519.494347974953	17
2	4818	1519.505325709747	18
2	4820	1519.899786059355	19
2	4821	1521.051972273248	18
2	4825	1521.545625431943	19
2	4826	1522.285357179935	18
2	4830	1522.749888530283	19
2	4831	1523.76410512987	18
2	4835	1524.136448475048	19
2	4836	1525.576145820948	18
2	4840	1526.44552551667	19
2	4841	1526.793322933349	18
2	4845	1526.863443751927	19
2	4846	1528.787491111341	18
2	4849	1530.206498050015	17
2	4853	1531.261085316394	18
2	4855	1531.370733978593	19
2	4856	1531.881288736011	18
2	4860	1533.210274086752	19
2	4861	1533.315690536867	18
2	4865	1533.422662681229	19
2	4867	1534.284042842008	20
2	4868	1534.96428984392	19
2	4872	1535.809999996676	20
2	4873	1536.381692203018	19
2	4876	1537.911888510059	18
2	4879	1539.907474291954	17
2	4883	1540.798063442023	18
2	4886	1541.272694208357	17
2	4889	1542.702568976651	16
2	4893	1544.477925823376	17
2	4894	1544.666207761387	16
2	4898	1545.433656697553	17
2	4899	1546.342508904333	16
2	4903	1546.876271585447	17
2	4904	1548.171171543444	16
2	4908	1548.440203742619	17
2	4909	1549.388376916083	16
2	4912	1550.82964359268	15
2	4916	1551.700828941104	16
2	4917	1552.618909163097	15
2	4921	1553.061263270455	16
2	4922	1554.171619202452	15
2	4925	1555.774127371678	14
2	4929	1555.970493925652	15
2	4931	1556.918375175179	16
2	4932	1556.981435868399	15
2	4936	1557.564449923414	16
2	4937	1558.534248598547	15
2	4940	1560.106014005163	14
2	4944	1560.292183211632	15
2	4945	1561.934396394783	14
2	4949	1562.327757696314	15
2	4951	1563.225991130918	16
2	4952	1563.331161028774	15
2	4956	1563.495054260301	16
2	4957	1564.599722256766	15
2	4960	1566.176839164154	14
2	4964	1566.992106267172	15
2	4965	1567.807100382888	14
2	4969	1569.236489234103	15
2	4970	1569.427257537351	14
2	4973	1571.26892102591	13
2	4977	1571.307001927865	14
2	4979	1572.110709394565	15
2	4980	1572.630178934962	14
2	4983	1574.255032541484	13
2	4987	1575.007810162854	14
2	4988	1576.183560077727	13
2	4992	1576.331602678566	14
2	4994	1577.875645995903	15
2	4995	1577.928886620768	14
2	4999	1578.009784968796	15
2	5001	1578.692596746137	16
2	5003	1579.145438722836	17
2	5004	1579.463175499321	16
2	5008	1580.318936700876	17
2	5009	1580.919315284931	16
2	5013	1580.993292387262	17
2	5014	1582.650605410405	16
2	5017	1584.057379808344	15
2	5021	1585.802249985	16
2	5022	1585.918306477621	15
2	5025	1587.800930433228	14
2	5028	1589.027912776984	13
2	5032	1589.355190711146	14
2	5034	1589.627326823166	15
2	5035	1590.263993998684	14
2	5039	1590.340817761398	15
2	5041	1590.522827792268	16
2	5042	1591.955115277015	15
2	5046	1592.622393216542	16
2	5047	1593.385364218682	15
2	5051	1594.809301279404	16
2	5052	1595.031457830287	15
2	5055	1596.368596928819	14
2	5058	1597.669953732445	13
2	5062	1598.724088865752	14
2	5063	1599.066691679015	13
2	5067	1600.158187723115	14
2	5068	1600.549199696138	13
2	5072	1600.61621628845	14
2	5073	1602.192007888361	13
2	5076	1603.502460634775	12
2	5082	1604.037539791655	13
2	5083	1605.490092944048	12
2	5087	1605.833632699163	13
2	5088	1607.306606512211	12
2	5091	1608.53949445679	11
2	5095	1609.257970610167	12
2	5097	1609.574831830086	13
2	5098	1609.819885001771	12
2	5102	1610.044749995582	13
2	5104	1610.898741175221	14
2	5106	1611.354398985047	15
2	5107	1611.436310852013	14
2	5110	1612.821652551062	13
2	5114	1613.889931587934	14
2	5115	1614.705609602734	13
2	5118	1616.409594376824	12
2	5123	1618.09751085925	11
2	5127	1619.199464035157	12
2	5128	1619.435429438456	11
2	5132	1619.802928949665	12
2	5134	1620.383802207597	13
2	5135	1620.813952804609	12
2	5138	1622.231794969617	11
2	5142	1622.5475924283	12
2	5144	1623.445348261728	13
2	5145	1623.888219228453	12
2	5149	1624.105042339032	13
2	5150	1625.126858308791	12
2	5153	1626.56156175851	11
2	5156	1627.796978383764	10
2	5160	1629.078171629166	11
2	5161	1629.389801443435	10
2	5165	1629.687282254935	11
2	5167	1630.790591056059	12
2	5168	1631.032639129154	11
2	5171	1632.766041086122	10
2	5175	1633.528994572956	11
2	5176	1634.249567156538	10
2	5179	1636.198279314182	9
2	5183	1636.252347950899	10
2	5184	1637.560279926724	9
2	5188	1639.022511246816	10
2	5189	1639.489164682172	9
2	5193	1639.516394325829	10
2	5195	1640.646433019149	11
2	5196	1640.823033769123	10
2	5199	1642.306492176532	9
2	5202	1643.668181184187	8
2	5207	1645.397499532878	7
2	5211	1645.639278577934	8
2	5214	1646.842694458991	7
2	5218	1647.214001650784	8
2	5220	1648.382223332974	9
2	5221	1648.517323830232	8
2	5225	1649.762082082907	9
2	5227	1650.05824942879	10
2	5228	1650.061481043763	9
2	5232	1650.1138742545	10
2	5234	1650.609568560897	11
2	5235	1651.66528864789	10
2	5239	1652.652471961265	11
2	5241	1653.021581114067	12
2	5242	1653.48584625709	11
2	5245	1655.274939529292	10
2	5248	1657.11012357983	9
2	5252	1657.576087731304	10
2	5254	1657.691691404478	11
2	5256	1657.932730075702	12
2	5257	1658.497667301141	11
2	5261	1659.054873037382	12
2	5263	1659.435597065695	13
2	5264	1659.933389058776	12
2	5267	1661.208887309648	11
2	5271	1661.420451089827	12
2	5272	1662.607294910468	11
2	5276	1662.718370106198	12
2	5277	1663.886733396977	11
2	5281	1664.563851143725	12
2	5282	1665.31155538547	11
2	5286	1665.671876858733	12
2	5287	1666.718037607587	11
2	5291	1667.532535596337	12
2	5293	1668.551665797479	13
2	5294	1668.684097024492	12
2	5297	1670.238228874347	11
2	5301	1670.597860018128	12
2	5303	1670.830844462062	13
2	5304	1672.141315210118	12
2	5309	1673.731889911435	11
2	5315	1674.58980790503	12
2	5317	1674.611324922749	13
2	5318	1675.310309313118	12
2	5322	1676.117043800107	13
2	5324	1676.88804255509	14
2	5325	1676.95091758228	13
2	5329	1677.026106404639	14
2	5330	1678.721406469001	13
2	5334	1679.903271844513	14
2	5335	1680.444932045667	13
2	5339	1681.12362555977	14
2	5341	1681.233489489814	15
2	5342	1682.088140432044	14
2	5346	1682.214320677327	15
2	5348	1682.8998794877	16
2	5349	1683.321394625559	15
2	5354	1685.036720930852	14
2	5358	1685.596056860642	15
2	5360	1685.681226260742	16
2	5361	1686.508963007919	15
2	5365	1687.086530697869	16
2	5366	1688.091763821311	15
2	5370	1688.37557971769	16
2	5371	1689.91077240172	15
2	5374	1691.856532464429	14
2	5377	1693.200530439495	13
2	5381	1693.701236268191	14
2	5383	1693.91472433775	15
2	5387	1694.301675585595	16
2	5388	1695.003132071598	15
2	5392	1695.490315905298	16
2	5393	1696.418588312595	15
2	5397	1696.510652527532	16
2	5398	1697.786669541589	15
2	5402	1698.532213232854	16
2	5404	1698.96473225661	17
2	5405	1699.429169422268	16
2	5409	1700.190934707851	17
2	5410	1700.645075521684	16
2	5414	1700.728675007916	17
2	5417	1702.434448618135	16
2	5421	1703.393211043046	17
2	5422	1704.2972133544	16
2	5426	1705.008229935785	17
2	5427	1705.967442099816	16
2	5430	1707.632609000682	15
2	5434	1709.157690581409	16
2	5435	1709.411735103532	15
2	5441	1710.308338543551	16
2	5442	1710.950193958982	15
2	5446	1712.122363351355	16
2	5447	1712.316871959224	15
2	5450	1713.641426757976	14
2	5453	1714.990143555097	13
2	5457	1715.045935647959	14
2	5458	1716.247684486091	13
2	5462	1716.451016557305	14
2	5464	1717.601230665205	15
2	5465	1717.670872336693	14
2	5469	1718.110059839641	15
2	5471	1719.446059440916	16
2	5472	1719.59589045725	15
2	5475	1720.884596947834	14
2	5478	1722.438746689513	13
2	5482	1722.536613893834	14
2	5483	1723.886457799069	13
2	5487	1723.916340615055	14
2	5489	1724.909152115342	15
2	5491	1725.205549977528	16
2	5492	1725.43029287818	15
2	5496	1726.296546662093	16
2	5497	1726.857461865313	15
2	5501	1728.272889925821	16
2	5502	1728.684810799986	15
2	5506	1728.719362372949	16
2	5507	1730.193325415321	15
2	5511	1730.267983817741	16
2	5512	1731.508781830848	15
2	5515	1732.935358840667	14
2	5519	1732.971617039594	15
2	5520	1734.610378390618	14
2	5524	1734.636286967091	15
2	5525	1735.869928926111	14
2	5528	1737.183245035515	13
2	5532	1737.5591463242	14
2	5533	1738.474899996326	13
2	5537	1738.539511037457	14
2	5538	1739.727039898441	13
2	5542	1740.096977796555	14
2	5545	1741.165225178257	13
2	5549	1741.449689660401	14
2	5550	1743.105342553623	13
2	5554	1744.704968572864	14
2	5555	1744.757584985971	13
2	5559	1745.165690827722	14
2	5561	1745.50417362043	15
2	5562	1746.405684624493	14
2	5566	1747.1306119176	15
2	5567	1748.098884093456	14
2	5570	1749.635044599019	13
2	5574	1750.421067761668	14
2	5576	1750.667557757804	15
2	5578	1751.293706901482	16
2	5579	1751.436445110358	15
2	5583	1751.68761416375	16
2	5585	1752.61492860936	17
2	5587	1753.080979511864	18
2	5588	1753.311876833506	17
2	5591	1754.611060896583	16
2	5594	1756.429695084572	15
2	5598	1756.823525258884	16
2	5600	1757.73865946949	17
2	5601	1758.232831101	16
2	5605	1758.234256377688	17
2	5606	1759.845527802847	16
2	5610	1760.806689624195	17
2	5611	1761.598859853364	16
2	5614	1762.83445547118	15
2	5618	1764.355139561753	16
2	5620	1764.438293864491	17
2	5621	1764.677909094907	16
2	5625	1764.993345675933	17
2	5627	1766.422138378358	18
2	5628	1766.595376385443	17
2	5632	1766.728641373915	18
2	5633	1768.50022767435	17
2	5637	1769.33587988126	18
2	5638	1770.479706844568	17
2	5642	1770.552933032014	18
2	5643	1771.867472427405	17
2	5646	1773.150027437016	16
2	5650	1774.699127104864	17
2	5652	1774.707125204464	18
2	5653	1774.713274488292	17
2	5659	1776.658455507007	18
2	5660	1776.707518851078	17
2	5663	1778.276289388976	16
2	5667	1778.5350097026	17
2	5669	1778.538487170144	18
2	5670	1779.497613022915	17
2	5674	1780.783043462964	18
2	5675	1780.984730501912	17
2	5678	1782.72720395147	16
2	5682	1783.298008007624	17
2	5683	1784.232932376369	16
2	5687	1784.499604535905	17
2	5688	1785.732390200599	16
2	5692	1786.80806179284	17
2	5693	1787.287109389408	16
2	5697	1787.31218925026	17
2	5698	1789.148737002789	16
2	5702	1789.476736186038	17
2	5703	1790.521292434326	16
2	5707	1790.971621792035	17
2	5708	1792.005412777765	16
2	5712	1792.44868593219	17
2	5713	1793.848368537119	16
2	5716	1795.345694386652	15
2	5719	1796.676384782857	14
2	5723	1797.670642854664	15
2	5724	1798.618141073613	14
2	5728	1798.911023837965	15
2	5729	1800.324463037467	14
2	5733	1801.076333884604	15
2	5734	1801.812215997531	14
2	5738	1803.153388276729	15
2	5739	1803.633636368691	14
2	5743	1803.743139851929	15
2	5744	1805.034906006671	14
2	5748	1806.49667697257	15
2	5749	1806.746430386483	14
2	5753	1807.288318530396	15
2	5755	1807.915941362013	16
2	5756	1808.504997714862	15
2	5760	1809.23538450052	16
2	5762	1809.254811799838	17
2	5763	1810.270538670823	16
2	5766	1812.085245879248	15
2	5770	1813.434930497168	16
2	5771	1813.554301700436	15
2	5774	1814.77928167905	14
2	5777	1816.686105261438	13
2	5781	1818.027298011978	14
2	5782	1818.661435567469	13
2	5786	1818.885570822553	14
2	5788	1819.109412303817	15
2	5790	1819.45668432256	16
2	5792	1820.069199975727	17
2	5794	1820.472368227841	18
2	5795	1820.571161395193	17
2	5799	1820.683327152467	18
2	5801	1820.90656434226	19
2	5802	1821.813297108815	18
2	5807	1823.446216564135	17
2	5811	1823.449912291753	18
2	5815	1825.340611874561	19
2	5816	1825.342033042082	18
2	5820	1825.508842009754	19
2	5821	1826.825127528676	18
2	5825	1827.397154010777	19
2	5826	1828.696757277356	18
2	5829	1830.313258377159	17
2	5833	1831.209845820603	18
2	5834	1831.60927920516	17
2	5838	1831.775249672506	18
2	5840	1832.719812137323	19
2	5841	1833.284933911146	18
2	5845	1834.460097012417	19
2	5846	1834.797674700872	18
2	5850	1835.246509171335	19
2	5852	1835.312209769397	20
2	5853	1836.743882191622	19
2	5856	1838.635912741416	18
2	5859	1840.34630227282	17
2	5863	1840.550455568979	18
2	5864	1842.081995667585	17
2	5868	1842.218522852978	18
2	5870	1842.907894845861	19
2	5871	1844.031170612269	18
2	5875	1844.078716563276	19
2	5877	1845.388183804792	20
2	5878	1845.826965085299	19
2	5881	1847.315599059196	18
2	5884	1848.586984438332	17
2	5888	1849.600904942164	18
2	5889	1850.321532788383	17
2	5894	1851.918687048996	16
2	5897	1853.841629468719	15
2	5901	1854.213647758567	16
2	5902	1855.631466461415	15
2	5905	1856.831920732255	14
2	5908	1858.108604373294	13
2	5911	1859.989100577752	12
2	5915	1860.627735664193	13
2	5917	1861.169865395984	14
2	5918	1861.473034572857	13
2	5922	1862.046521259611	14
2	5924	1862.22860006633	15
2	5925	1862.968719046632	14
2	5929	1864.400408151261	15
2	5930	1864.826215494866	14
2	5933	1866.471180337551	13
2	5937	1866.793344482672	14
2	5939	1866.873473803602	15
2	5941	1867.93484148164	16
2	5943	1868.057830278521	17
2	5944	1868.223417358543	16
2	5948	1868.365490641302	17
2	5950	1868.562215252633	18
2	5951	1870.04133250888	17
2	5955	1870.126348810687	18
2	5957	1870.981503729429	19
2	5959	1871.075186627621	20
2	5960	1871.544688710268	19
2	5964	1872.985084464669	20
2	5965	1873.208721270669	19
2	5969	1874.744147777776	20
2	5970	1874.98694246437	19
2	5974	1875.428511496241	20
2	5976	1876.118464121256	21
2	5977	1876.649777976308	20
2	5981	1876.787960176783	21
2	5983	1878.253453127415	22
2	5984	1878.384222397093	21
2	5988	1879.179198483402	22
2	5989	1879.907769937326	21
2	5992	1881.111508131471	20
2	5996	1881.923850603859	21
2	5998	1882.789451157044	22
2	5999	1882.880378282141	21
2	6003	1883.093869735846	22
2	6004	1884.274462190341	21
2	6008	1884.908525426438	22
2	6009	1885.714381596703	21
2	6012	1887.098880278017	20
2	6016	1887.875061871072	21
2	6017	1889.025564556639	20
2	6021	1889.544629409525	21
2	6022	1890.925390119176	20
2	6026	1891.680507817156	21
2	6027	1892.564851382073	20
2	6031	1892.638458546047	21
2	6033	1894.365737120503	22
2	6034	1894.546799922992	21
2	6037	1895.965513113957	20
2	6040	1897.80194636162	19
2	6044	1897.907655667128	20
2	6046	1899.337030938989	21
2	6047	1899.352615244385	20
2	6051	1899.523115794887	21
2	6053	1899.531915896485	22
2	6055	1900.371871889545	23
2	6056	1900.956990519051	22
2	6060	1901.109043071161	23
2	6062	1902.278896268313	24
2	6063	1902.917948706333	23
2	6066	1904.731288019453	22
2	6069	1906.615719915812	21
2	6073	1906.75954046634	22
2	6075	1907.208608108325	23
2	6076	1908.047739551661	22
2	6079	1909.330179522259	21
2	6083	1910.029948436174	22
2	6084	1910.969450384078	21
2	6088	1911.512608654386	22
2	6089	1912.431844336425	21
2	6092	1914.116303541956	20
2	6095	1915.527668948171	19
2	6099	1915.908300858977	20
2	6101	1916.339236963271	21
2	6102	1917.28163088083	20
2	6106	1918.425152501479	21
2	6107	1919.196286759039	20
2	6110	1920.409356401374	19
2	6113	1922.022432165851	18
2	6117	1922.400141310098	19
2	6119	1923.877087191883	20
2	6120	1923.928071095121	19
2	6124	1925.602708634024	20
2	6125	1925.817111068477	19
2	6129	1925.907029460985	20
2	6131	1927.627666225351	21
2	6132	1927.699026310516	20
2	6136	1928.211403806354	21
2	6138	1928.873763061186	22
2	6139	1929.467897431625	21
2	6142	1930.722337862922	20
2	6145	1931.979504186547	19
2	6149	1933.181307567461	20
2	6151	1933.216078760265	21
2	6152	1933.567306043467	20
2	6156	1933.672133763321	21
2	6158	1934.452519383082	22
2	6159	1935.299598055965	21
2	6163	1935.823990812734	22
2	6164	1937.187900062724	21
2	6168	1937.730366307595	22
2	6170	1938.016868609242	23
2	6171	1939.029274640678	22
2	6175	1939.614627693155	23
2	6176	1940.371078663206	22
2	6179	1941.961001190244	21
2	6183	1942.655735247436	22
2	6184	1943.182399550526	21
2	6188	1944.153143824805	22
2	6189	1944.816248806825	21
2	6192	1946.53246414054	20
2	6196	1947.151173962394	21
2	6198	1947.361520592702	22
2	6200	1947.493597597519	23
2	6201	1947.820346275603	22
2	6205	1948.416301915527	23
2	6207	1948.676450582265	24
2	6208	1949.106220035886	23
2	6214	1950.528674411357	24
2	6215	1950.714341067409	23
2	6219	1951.122338112626	24
2	6220	1952.212024171909	23
2	6224	1952.538254821917	24
2	6225	1954.093003774693	23
2	6229	1954.415643156459	24
2	6230	1955.335589131413	23
2	6234	1956.539695469119	24
2	6235	1957.083851285724	23
2	6239	1957.366743641878	24
2	6241	1958.267177708004	25
2	6242	1958.393278378135	24
2	6246	1958.431918184722	25
2	6248	1959.10791402648	26
2	6250	1959.412943197695	27
2	6251	1959.787314752749	26
2	6255	1959.849521339918	27
2	6256	1961.274296008683	26
2	6259	1962.725980208888	25
2	6263	1963.582253848344	26
2	6264	1964.095919576361	25
2	6268	1964.516042567328	26
2	6269	1965.302326990738	25
2	6273	1965.351493944867	26
2	6274	1966.571031351275	25
2	6278	1966.903675523858	26
2	6279	1968.321526175252	25
2	6282	1970.230133734717	24
2	6285	1971.539194467179	23
2	6289	1972.022691514051	24
2	6290	1972.954835231304	23
2	6294	1973.405548274036	24
2	6295	1974.575627017468	23
2	6299	1975.261015552837	24
2	6301	1975.768009881703	25
2	6302	1976.475922441184	24
2	6306	1976.582936204404	25
2	6307	1978.36985890612	24
2	6311	1979.499864940553	25
2	6312	1979.594074070901	24
2	6316	1980.311857088506	25
2	6317	1981.340514970646	24
2	6321	1982.043932775029	25
2	6322	1982.786848443077	24
2	6326	1983.947015909836	25
2	6327	1984.731230626331	24
2	6331	1985.596104645422	25
2	6332	1985.983336748258	24
2	6335	1987.882420796045	23
2	6339	1988.587613259995	24
2	6340	1989.209236187377	23
2	6344	1990.687249332902	24
2	6345	1990.784045868442	23
2	6348	1992.573601679206	22
2	6352	1993.196701715783	23
2	6353	1994.411461004131	22
2	6356	1996.024146039859	21
2	6360	1997.304966111829	22
2	6361	1997.813171061948	21
2	6365	1997.95968608282	22
2	6367	1998.096334772719	23
2	6369	1998.406922484236	24
2	6370	1999.027324731164	23
2	6373	2000.348947552108	22
2	6376	2001.814347912074	21
2	6379	2003.410705510602	20
2	6383	2004.056574715687	21
2	6385	2004.089523227089	22
2	6386	2004.852984084264	21
2	6389	2006.304195825831	20
2	6393	2006.700282429501	21
2	6395	2007.715821594308	22
2	6396	2007.769398967997	21
2	6401	2009.736369051301	20
2	6405	2011.119536224601	21
2	6406	2011.415653453284	20
2	6410	2012.528356339264	21
2	6412	2012.617575520958	22
2	6413	2012.700128649437	21
2	6417	2013.237900898918	22
2	6418	2014.181039639079	21
2	6422	2015.429104884321	22
2	6423	2015.936598251835	21
2	6426	2017.89136746943	20
2	6430	2018.750516114945	21
2	6431	2019.442703037597	20
2	6435	2019.655148958897	21
2	6437	2019.750057316357	22
2	6439	2020.624636676427	23
2	6440	2021.073646808862	22
2	6443	2022.761640280559	21
2	6447	2023.472263797332	22
2	6449	2023.776600542462	23
2	6450	2024.734511343091	22
2	6454	2024.83861052195	23
2	6455	2025.980537346824	22
2	6459	2026.383449283929	23
2	6461	2026.871242664047	24
2	6462	2027.476256185844	23
2	6466	2027.57234806164	24
2	6467	2028.968936566524	23
2	6471	2030.519452933908	24
2	6472	2030.858051254488	23
2	6478	2031.562526042108	24
2	6479	2032.301063935533	23
2	6483	2033.27859722655	24
2	6484	2034.126907839142	23
2	6488	2034.342719752817	24
2	6489	2035.563188621663	23
2	6493	2036.518457336215	24
2	6494	2036.77829048343	23
2	6498	2037.309890090236	24
2	6500	2037.621450424591	25
2	6501	2038.139029500335	24
2	6504	2039.973769380785	23
2	6508	2040.261763239881	24
2	6509	2041.8920043445	23
2	6513	2042.032861772813	24
2	6514	2043.230372183658	23
2	6520	2044.43515801469	24
2	6521	2045.035347195603	23
2	6524	2046.249288832657	22
2	6527	2048.031227048188	21
2	6530	2049.427000557333	20
2	6534	2050.119180354628	21
2	6535	2050.665699635148	20
2	6539	2051.429399059716	21
2	6541	2051.550310473005	22
2	6543	2051.612121099669	23
2	6545	2051.82294186275	24
2	6546	2052.081441937089	23
2	6549	2053.407150193378	22
2	6552	2055.320142709724	21
2	6556	2056.45791319153	22
2	6557	2057.065349560491	21
2	6561	2057.161797080262	22
2	6562	2058.431308161541	21
2	6566	2059.475101970882	22
2	6567	2059.648004821762	21
2	6571	2060.198008309272	22
2	6573	2060.940695546111	23
2	6574	2060.951453817524	22
2	6577	2062.813350880034	21
2	6581	2062.988606946984	22
2	6582	2064.165534427277	21
2	6586	2064.445479799339	22
2	6587	2066.065557907595	21
2	6593	2067.500639909224	22
2	6594	2067.844548575095	21
2	6598	2068.948164620097	22
2	6599	2069.235744269638	21
2	6603	2069.523976193378	22
2	6604	2070.630401086694	21
2	6608	2071.109108191376	22
2	6609	2072.18008055657	21
2	6612	2073.656077414452	20
2	6615	2075.117091766073	19
2	6618	2076.852445200345	18
2	6622	2077.354261185394	19
2	6624	2078.03683424231	20
2	6625	2078.125509836039	19
2	6629	2078.271220808825	20
2	6631	2079.618010263076	21
2	6633	2079.924736150247	22
2	6634	2079.955632197371	21
2	6638	2081.090722818901	22
2	6639	2081.515889514124	21
2	6643	2081.895166548534	22
2	6644	2083.138321815504	21
2	6647	2084.562200464381	20
2	6650	2086.176544998286	19
2	6654	2086.928593496286	20
2	6656	2087.071475407172	21
2	6657	2087.461489931753	20
2	6660	2089.314180720111	19
2	6666	2089.699649937045	20
2	6668	2090.426210619736	21
2	6669	2090.702961043154	20
2	6673	2091.487387400859	21
2	6674	2092.092243983668	20
2	6678	2092.288761196731	21
2	6679	2094.04380418088	20
2	6683	2095.053135611253	21
2	6684	2095.844205253643	20
2	6688	2096.283636728646	21
2	6690	2096.970683763334	22
2	6691	2097.780118657534	21
2	6695	2099.34181082558	22
2	6696	2099.770233243776	21
2	6700	2100.384177862507	22
2	6701	2101.387780323883	21
2	6704	2103.203832727743	20
2	6708	2104.319551764248	21
2	6709	2104.96113859534	20
2	6713	2105.076371300042	21
2	6714	2106.851239093279	20
2	6718	2107.955274132507	21
2	6719	2108.398768263755	20
2	6723	2109.040585918295	21
2	6724	2110.139853576643	20
2	6728	2110.82570916666	21
2	6729	2111.437446349	20
2	6733	2113.305623786623	21
2	6734	2113.366440664676	20
2	6738	2113.748360902837	21
2	6739	2114.983536971246	20
2	6742	2116.646207785306	19
2	6746	2116.696971586761	20
2	6748	2118.148166493721	21
2	6749	2118.206620851045	20
2	6753	2119.118643495283	21
2	6754	2120.041842410599	20
2	6758	2120.118778202747	21
2	6762	2121.257827214028	22
2	6765	2122.022520886992	21
2	6769	2122.739012523196	22
2	6770	2123.74758314572	21
2	6774	2124.084822446147	22
2	6775	2125.273989863393	21
2	6778	2126.653439121206	20
2	6782	2127.028706378265	21
2	6784	2127.783597878496	22
2	6785	2128.088803589229	21
2	6789	2128.706392445357	22
2	6791	2129.09287481972	23
2	6792	2129.693149991405	22
2	6796	2129.719332108638	23
2	6797	2131.614048680362	22
2	6800	2133.14607077602	21
2	6804	2134.050234060178	22
2	6806	2134.599808399229	23
2	6807	2134.612875534107	22
2	6811	2135.751859180105	23
2	6812	2136.140300196295	22
2	6816	2137.229824758637	23
2	6817	2137.374256373455	22
2	6821	2137.828289148684	23
2	6823	2138.502505753896	24
2	6825	2138.549104255292	25
2	6826	2139.229206879136	24
2	6830	2139.653875042745	25
2	6832	2139.764348720592	26
2	6833	2140.960949460116	25
2	6837	2142.06206078796	26
2	6838	2142.830285761763	25
2	6842	2142.852578772017	26
2	6843	2144.182065400553	25
2	6846	2145.577564863746	24
2	6850	2145.766340545536	25
2	6852	2145.77192335916	26
2	6854	2146.707466945677	27
2	6855	2147.433798682948	26
2	6859	2148.507368875297	27
2	6861	2149.110241893449	28
2	6862	2149.210009970961	27
2	6865	2151.037200225031	26
2	6868	2152.344014859831	25
2	6871	2153.813541778995	24
2	6875	2154.734246962956	25
2	6876	2155.222537909335	24
2	6879	2156.484740853569	23
2	6883	2158.272961015527	24
2	6884	2158.418905133827	23
2	6888	2158.885645662975	24
2	6890	2159.546014003056	25
2	6892	2160.172268968985	26
2	6893	2160.184627162366	25
2	6897	2160.193267212306	26
2	6899	2160.614354340548	27
2	6900	2161.72000060182	26
2	6904	2162.448218778007	27
2	6906	2162.699564594541	28
2	6907	2162.950895325168	27
2	6911	2163.9460258573	28
2	6913	2164.405485673797	29
2	6914	2164.536955072246	28
2	6918	2164.710093639123	29
2	6920	2165.043602148875	30
2	6922	2165.111935580214	31
2	6924	2165.938062274416	32
2	6925	2166.399664249718	31
2	6929	2166.818288064716	32
2	6930	2168.270249366835	31
2	6934	2168.937478164515	32
2	6935	2170.248593000025	31
2	6939	2170.867943075022	32
2	6940	2171.937607551069	31
2	6944	2171.985121639297	32
2	6945	2173.697417884954	31
2	6948	2175.564007699379	30
2	6951	2176.77100540016	29
2	6954	2178.184901695029	28
2	6958	2178.909093214715	29
2	6959	2179.585010959656	28
2	6962	2181.034599718154	27
2	6965	2182.842422243283	26
2	6969	2183.386000364226	27
2	6970	2184.164134270401	26
2	6973	2186.110996453912	25
2	6977	2186.506388865069	26
2	6978	2187.313698921242	25
2	6981	2189.10565444518	24
2	6986	2191.087116321997	23
2	6990	2191.387659418421	24
2	6991	2192.608002644294	23
2	6995	2193.178327922747	24
2	6997	2193.291780541113	25
2	6998	2193.981811990106	24
2	7002	2194.499661920824	25
2	7003	2195.609736797848	24
2	7007	2196.623099934629	25
2	7008	2197.216927345918	24
2	7012	2198.660099480502	25
2	7013	2198.903405222	24
2	7017	2198.912461681941	25
2	7019	2199.170348804127	26
2	7020	2200.432402488106	25
2	7024	2200.540705011275	26
2	7025	2201.814165023045	25
2	7028	2203.513911093288	24
2	7031	2204.950459085666	23
2	7035	2205.076476985722	24
2	7037	2206.166339476106	25
2	7038	2206.836586590372	24
2	7042	2207.759132964411	25
2	7043	2208.171347523183	24
2	7047	2208.27549485237	25
2	7048	2209.929093564749	24
2	7052	2210.381566577448	25
2	7053	2211.292873712331	24
2	7057	2211.578766647995	25
2	7059	2211.612765708055	26
2	7060	2212.74321945373	25
2	7066	2214.354520991766	26
2	7067	2214.632108775787	25
2	7071	2215.214904486283	26
2	7072	2216.485593776666	25
2	7075	2217.748387389332	24
2	7079	2218.032351473888	25
2	7080	2219.04223143708	24
2	7083	2220.492492604703	23
2	7087	2220.864713996909	24
2	7089	2221.158709347429	25
2	7090	2222.294657912739	24
2	7094	2222.482652379871	25
2	7095	2223.734028930292	24
2	7098	2225.428143002168	23
2	7102	2225.468918314144	24
2	7103	2227.056137248949	23
2	7107	2227.380540673116	24
2	7108	2228.949300211557	23
2	7111	2230.799138997012	22
2	7114	2232.452543578931	21
2	7117	2234.405559527577	20
2	7121	2235.330633305858	21
2	7122	2235.938696978876	20
2	7125	2237.194429288135	19
2	7129	2237.322146178211	20
2	7130	2239.139251091034	19
2	7136	2239.416080338977	20
2	7138	2240.081592757882	21
2	7140	2240.757958381647	22
2	7141	2241.004858741053	21
2	7145	2241.796318654576	22
2	7147	2241.904427696865	23
2	7148	2242.583677965291	22
2	7152	2243.370292378311	23
2	7153	2244.077294655405	22
2	7156	2245.659055586047	21
2	7160	2245.98712416906	22
2	7162	2246.72522602562	23
2	7163	2247.212318231985	22
2	7166	2248.836253179684	21
2	7169	2250.086372523829	20
2	7173	2250.893058712707	21
2	7175	2251.617016925429	22
2	7177	2251.729154424271	23
2	7179	2251.829919222389	24
2	7180	2251.92875614006	23
2	7184	2252.926420115599	24
2	7186	2253.022163991367	25
2	7187	2253.77000583548	24
2	7191	2254.313760307801	25
2	7192	2255.683205310701	24
2	7196	2255.83592485383	25
2	7198	2257.359697381934	26
2	7199	2257.527295549473	25
2	7202	2259.452334088719	24
2	7206	2259.708125044329	25
2	7207	2260.760781955792	24
2	7211	2260.8914513443	25
2	7212	2262.07111201573	24
2	7215	2263.662816624416	23
2	7219	2264.254282360748	24
2	7221	2264.673106003122	25
2	7222	2265.22678898487	24
2	7226	2265.404781241423	25
2	7228	2265.609894277381	26
2	7229	2266.913366293793	25
2	7233	2267.773486198522	26
2	7234	2268.571017215846	25
2	7237	2270.138012678621	24
2	7241	2271.154750686663	25
2	7242	2271.659105323514	24
2	7248	2272.223111016108	25
2	7250	2272.343387707637	26
2	7251	2273.033013050331	25
2	7254	2274.359154796487	24
2	7258	2274.92758319588	25
2	7260	2275.422613862615	26
2	7261	2276.337052819206	25
2	7264	2278.008848964496	24
2	7268	2279.434873173049	25
2	7269	2279.71023662526	24
2	7272	2281.53039773803	23
2	7276	2282.414321549796	24
2	7278	2282.688799653766	25
2	7280	2282.763265666724	26
2	7281	2283.42000848416	25
2	7285	2283.756116175487	26
2	7286	2285.109494743382	25
2	7290	2285.953015115273	26
2	7291	2286.946223088053	25
2	7295	2287.192650069763	26
2	7296	2288.791588788737	25
2	7300	2289.067389458715	26
2	7303	2290.256952386607	25
2	7306	2291.795259594616	24
2	7310	2292.8293581178	25
2	7311	2293.159075608362	24
2	7315	2293.592767356127	25
2	7316	2295.149037565362	24
2	7319	2297.011973450404	23
2	7322	2298.435576524843	22
2	7326	2299.513007977231	23
2	7327	2299.947371526693	22
2	7331	2300.27468268502	23
2	7332	2301.889024180059	22
2	7336	2302.403374215337	23
2	7337	2303.118779161644	22
2	7340	2304.588606106561	21
2	7343	2306.292612533715	20
2	7347	2307.694321239195	21
2	7348	2307.769698556584	20
2	7352	2308.036040927959	21
2	7356	2308.818905554983	22
2	7357	2309.548795403053	21
2	7361	2309.780308053115	22
2	7362	2310.974991681685	21
2	7366	2312.733343557406	22
2	7368	2312.77008184887	23
2	7369	2312.880416958292	22
2	7373	2312.963291077222	23
2	7375	2313.02039082101	24
2	7376	2314.64918435577	23
2	7380	2315.38193267932	24
2	7381	2316.615039033514	23
2	7385	2318.230620921694	24
2	7386	2318.407527774457	23
2	7390	2319.585698451393	24
2	7392	2319.603846730808	25
2	7393	2320.290653698776	24
2	7397	2320.467576280729	25
2	7398	2322.086947025616	24
2	7401	2323.306073036302	23
2	7405	2323.62983892867	24
2	7409	2324.199314204737	25
2	7411	2324.566869748617	26
2	7412	2324.74498004641	25
2	7416	2325.97055934797	26
[...]
5	84087	26228.637057522558	269.68626221349
5	84092	26229.986944534131	1391.1531838416
5	84107	26234.824228038699	1394.5330750515
5	84151	26246.826850727447	2495.7420357989
5	84159	26250.032070529149	267.2077427092
5	84186	26258.273441886217	267.17942428094
5	84189	26260.221880925134	844.44537921891
5	84233	26274.353773470096	851.56743877981
5	84292	26295.088272729947	1117.5754280991
5	84297	26296.936775962136	842.06430189866
5	84318	26305.287420259661	849.13567214992
5	84340	26311.519051249197	849.71955565702
5	84367	26319.89174628487	1960.7659319189
5	84400	26331.791031122638	1968.520399156
5	84412	26335.119686877041	287.26816025569
5	84496	26360.967915609538	2543.488684347
5	84503	26362.776643775463	1699.068244117
5	84530	26371.279296750449	1974.2895183565
5	84575	26384.666882696435	274.10418529949
5	84594	26389.553545398139	1139.8753131811
5	84629	26401.406044279844	570.61169179055
5	84632	26403.068569047623	276.50806233791
5	84655	26411.451846060029	4099.3272693673
5	84658	26413.282706388517	3342.7290395766
5	84661	26414.831653127691	575.41390914057
5	84694	26425.329486046417	1406.6549243419
5	84755	26446.243809011637	283.91695196642
5	84762	26448.05023866283	2548.5528640698
5	84804	26462.317152916697	577.96027095452
5	84908	26492.885565274453	4096.1208303558
5	84936	26498.768790109699	287.13253230828
5	84952	26506.041319930052	1142.8527101769
5	84979	26514.159107183537	849.77273762205
5	85066	26540.040305475576	288.85426949943
5	85084	26546.545950545056	4064.3589588649
5	85152	26562.3690822397	554.54110010482
5	85160	26565.377809181867	3313.9010313172
5	85228	26588.056793039909	4082.620597396
5	85233	26589.467447567789	282.18488887185
5	85311	26612.063043041025	1141.6285028095
5	85346	26622.622133908291	857.73350692607
5	85381	26633.978999496866	1143.5011605078
5	85387	26636.697025414985	1686.4536859009
5	85401	26639.414036430847	858.26486608271
5	85406	26641.170762040895	283.30381069364
5	85444	26650.750691480432	858.25999402138
5	85473	26658.4516392483	571.91636192857
5	85479	26662.158014218565	280.89069204462
5	85484	26663.588639224935	1990.3753876948
5	85487	26664.877452947441	563.4097760457
5	85510	26673.16021876974	1426.1308053918
5	85537	26681.626763636488	284.55047322503
5	85576	26693.064477096927	2556.9586308277
5	85614	26706.268755632136	1145.2258803235
5	85672	26725.250147903396	1424.026566729
5	85712	26735.073315657175	275.69362480175
5	85778	26754.586617125443	3887.6454000322
5	85814	26767.637143985985	276.46188601396
5	85823	26769.44370044457	1148.606996001
5	85856	26779.698811464441	2248.9329745559
5	85934	26801.938469865045	576.79479569061
5	85949	26807.130932946933	2828.7068554473
5	85964	26811.518591141013	3101.7613178809
5	86047	26834.489726122339	2822.3115502987
5	86054	26836.267587415372	3855.1371067676
5	86069	26840.291813243982	3074.680183152
5	86120	26855.042297924181	2257.2604105838
5	86257	26892.083698019072	575.77823189888
5	86270	26897.525524469152	1148.0193808459
5	86293	26905.666775863491	2273.1704016026
5	86298	26907.581043145679	292.74745371866
5	86318	26914.683738604433	580.6554257182
5	86377	26933.512056634446	1989.0082618127
5	86420	26948.030406028089	1164.8216464315
5	86432	26950.945752734003	878.6430616647
5	86445	26955.224029609059	4166.3078446078
5	86495	26971.918216756229	1714.4728397589
5	86513	26978.723907527198	859.32581607924
5	86523	26982.287091833968	294.20000392963
5	86576	26997.955866265167	849.23199328271
5	86630	27013.588675086814	1725.0057596995
5	86643	27018.276602709162	573.74441589544
5	86648	27019.796453001033	1441.3523902275
5	86653	27021.618591100219	5188.5284026856
5	86704	27036.097638657558	294.84257761295
5	86707	27037.420982006992	569.74439036675
5	86730	27046.050241925435	299.52469988867
5	86762	27055.274891723187	3675.0419232983
5	86765	27056.947708748334	1446.4464226062
5	86768	27058.241716268712	299.28834370911
5	86780	27061.607239354456	2837.2502967421
5	86785	27063.170141051205	299.43651617359
5	86808	27071.374422277006	6181.501630331
5	86820	27074.437790428716	1446.1781486371
5	86863	27088.067737869043	1732.0192326491
5	86909	27103.394755317701	580.41375199533
5	87040	27139.192687732038	893.71386519194
5	87062	27144.81983012693	307.72534366188
5	87090	27154.542897531447	1443.6781239119
5	87093	27156.002225798053	1159.2358223208
5	87096	27157.436448982229	308.46750926767
5	87109	27162.624022262601	895.79836808263
5	87119	27165.611739809496	895.12208734916
5	87130	27170.523370412236	314.38257099302
5	87154	27176.660881876258	314.49684457973
5	87240	27201.265603985693	1466.0405400811
5	87245	27203.065072533544	2019.0025928777
5	87301	27219.593372546005	1180.2614397034
5	87329	27229.482809729929	3689.785678703
5	87332	27231.297878872099	2293.5394742092
5	87381	27245.7301642411	2036.7024774039
5	87389	27248.592106214965	3971.9848930367
5	87397	27252.331972364018	906.7175534583
5	87425	27262.42550159456	1486.7480500523
5	87492	27283.005126909966	1180.7451855411
5	87542	27299.040249073187	313.27700208714
5	87551	27300.54267903013	1754.3215140054
5	87564	27305.509233265051	612.4139877222
5	87588	27311.730828721875	1469.6344832164
5	87596	27314.605399267056	1472.4996687928
5	87687	27342.855283976212	889.62004677718
5	87732	27357.405472496575	321.31414064988
5	87819	27383.000533208115	313.7303946639
5	87827	27385.871832638098	3719.5650125539
5	87832	27387.74403030598	617.69637681321
5	87840	27390.795762435584	616.4914890202
5	87865	27399.623684649406	1766.5681348969
5	87878	27405.183217740854	897.00072372296
5	87881	27407.037992298839	614.70085911483
5	87896	27411.636908309024	900.57472335695
5	87899	27413.5666568073	901.33676935803
5	87964	27432.82834479348	1202.3574569356
5	87985	27438.199815545652	621.52302014159
5	88006	27445.799968833711	2876.6593392799
5	88082	27467.188665017906	626.06281320755
5	88087	27468.897364978726	623.58095605944
5	88131	27481.493254728477	2319.7482003529
5	88154	27489.951873938602	309.12458095933
5	88157	27491.353190588814	1473.7733219068
5	88168	27495.36679207166	628.1452176122
5	88196	27505.009864648108	312.86892348697
5	88208	27508.611532539364	3453.4899825296
5	88219	27513.821691643495	2061.4555294368
5	88224	27515.515781298142	2900.1039208919
5	88229	27516.853484363902	1487.1860918229
5	88255	27526.08665139922	312.37031007726
5	88318	27543.207634173008	2911.0744617588
5	88323	27545.202912401082	1215.2984064508
5	88350	27552.535848756367	312.60234913824
5	88385	27563.107262896608	925.85553510942
5	88409	27569.315658582609	630.43242664467
5	88412	27570.730436248194	1513.6927778002
5	88437	27579.872121138546	3487.1456952664
5	88445	27582.728004447046	313.54244065517
5	88451	27585.85483335429	2356.2531930632
5	88456	27587.574516806054	1787.7583631974
5	88511	27601.763003607141	1494.2818562486
5	88529	27609.301192417788	2347.4057109163
5	88532	27610.521783723916	1494.238074811
5	88535	27611.87626839527	2344.2200106477
5	88555	27618.7387790157	2061.2615085341
5	88568	27623.001136296662	1782.3629533945
5	88571	27624.316132203909	1476.4175358239
5	88595	27633.679066960932	3457.547300212
5	88619	27640.452468466431	1788.5432053018
5	88622	27641.763707350798	2617.9108371328
5	88666	27654.064222626061	311.73533460742
5	88689	27662.19249042631	1789.1217868883
5	88708	27667.017165996738	632.98068015114
5	88716	27669.999534185649	1787.6292773967
5	88731	27674.624518403084	311.33749419008
5	88745	27677.754471169644	2367.5592524127
5	88761	27684.024941270285	312.03148818375
5	88806	27697.507497880094	1213.3182697545
5	88830	27703.531308737814	2075.2086220911
5	88869	27714.606930471816	2614.2363694987
5	88899	27723.913496134662	1202.2329880993
5	88963	27743.707684891159	1206.1008072372
5	88994	27754.664292240563	2904.0727440587
5	89030	27767.259351482104	934.26489798592
5	89052	27773.090103368323	932.88714378478
5	89055	27774.821479698505	1521.0468036645
5	89092	27785.545064980397	307.30482744556
5	89111	27793.954263151297	932.79843746588
5	89130	27799.037506450015	616.33754428223
5	89144	27802.066073122854	933.74630737453
5	89153	27806.671988311829	1787.7099743473
5	89163	27809.168622205081	1787.4812080384
5	89178	27814.215538713383	937.57999536764
5	89208	27823.553058889741	1231.5303364308
5	89230	27830.713960516313	297.34731556181
5	89238	27834.469699749211	944.89284507942
5	89246	27837.466190000856	4048.162987195
5	89251	27839.431418566825	2377.4610767178
5	89261	27842.134710447164	942.97411152971
5	89264	27843.973854356678	1516.8159891077
5	89272	27847.161568084033	1231.584603517
5	89275	27848.607988881925	298.03233849374
5	89278	27850.015856525162	299.41358526923
5	89293	27854.454370266991	933.90849403591
5	89306	27859.860666846531	300.68872191752
5	89327	27868.153932964476	302.40101224658
5	89332	27869.654947862262	615.62560370639
5	89335	27871.499239364686	2660.4527798053
5	89358	27878.869823339442	613.23329474876
5	89371	27883.748074915307	2389.5116830458
5	89379	27887.071150984476	297.35209777878
5	89433	27902.592013628269	301.82108414118
5	89463	27911.685848222533	6115.8781556758
5	89466	27913.348348035337	2077.7973442967
5	89567	27946.960354455047	1215.8966279342
5	89576	27948.324493537516	2359.3158240037
5	89579	27949.908616546773	1784.61365476
5	89626	27963.857900660157	1219.5917280037
5	89639	27968.75519755841	602.71385797725
5	89644	27970.729643586695	287.17379016373
5	89652	27973.832666623637	2087.1157118601
5	89676	27981.00303212092	603.81258903277
5	89687	27986.154088626847	926.84464676175
5	89697	27989.16049101916	1221.0679140892
5	89700	27990.960752387949	5863.0838912144
5	89782	28017.084615092584	291.81819606097
5	89879	28045.039288384515	596.45846210274
5	89884	28046.634457451898	4582.1780451211
5	89899	28052.000481088322	1224.7824923333
5	89935	28064.362068625774	289.39112110837
5	89957	28070.219235963981	596.33915296475
5	89962	28072.014671003121	290.84763777016
5	89998	28085.309294811868	1516.6539688026
5	90145	28128.528477306151	276.17204377214
5	90160	28133.099911215016	1505.0226828321
5	90212	28150.286799102882	1787.9985085506
5	90241	28157.625814825343	264.67126327932
5	90255	28161.128312883387	2643.335014532
5	90299	28173.467762703682	266.98940145786
5	90341	28185.909497908178	2340.6047469103
5	90346	28187.867311676267	869.39724448085
5	90385	28202.055910733576	1186.7743759207
5	90397	28205.97380905212	1187.8326716701
5	90449	28222.199671622599	2620.6386636269
5	90454	28223.735985396291	554.52018247004
5	90461	28225.156242363761	1190.5313987233
5	90466	28227.009261320206	554.02041962609
5	90557	28255.01356423893	859.00979059663
5	90584	28263.141161020334	548.69751723541
5	90592	28266.961203226681	549.17415169113
5	90601	28270.978339953768	258.94001988171
5	90670	28291.907947365427	1766.1933587541
5	90686	28298.614581958064	3466.21372964
5	90739	28317.450744440638	1772.3573722334
5	90749	28320.849837559134	1183.6920989442
5	90754	28322.838170691438	2079.1791274946
5	90759	28324.696860737585	2355.669077712
5	90778	28329.778696139203	4566.9856103667
5	90785	28331.144415469328	2913.5071415308
5	90788	28332.513620123128	859.59901221991
5	90796	28335.760746611888	262.33221253721
5	90848	28350.794416078786	551.70961467247
5	90856	28354.110876020464	857.09520087268
5	90869	28359.273800916645	262.33788239915
5	90908	28369.783988507513	263.86658456832
5	90964	28384.703133428332	2073.113730137
5	90967	28386.16023536497	1170.2322326502
5	90987	28392.705233847399	2347.1941814995
5	91002	28396.943738127549	2057.9890810042
5	91014	28400.176145301995	260.39832867633
5	91045	28411.701097115551	8588.4522045981
5	91062	28416.565497618776	260.5956341375
5	91071	28421.21315880106	831.49663576619
5	91084	28425.463716269892	833.16210007499
5	91092	28428.9472385217	834.57404969408
5	91097	28430.399664535982	265.83632559556
5	91106	28432.285544753869	1471.5406967073
5	91132	28442.241586422225	2328.666876929
5	91138	28445.426655746673	1769.9839648136
5	91177	28457.746231706116	1147.9602237324
5	91187	28461.416537886534	1142.3598023728
5	91214	28469.709049393844	1463.2454801209
5	91261	28483.93206613944	832.15996870859
5	91314	28502.632880723338	2033.0277509128
5	91419	28532.533499824119	2605.6567259369
5	91427	28535.959170813721	273.94925312191
5	91474	28549.974289811265	823.70865023302
5	91482	28552.882129873384	525.1804747189
5	91524	28565.576299152011	264.97894410301
5	91554	28572.455099004553	1137.3100592549
5	91564	28575.652442926028	1138.1515384169
5	91576	28581.707012485386	263.97965717107
5	91581	28583.412527057202	1459.1684570225
5	91601	28589.926519762398	543.64104562645
5	91608	28591.921449761697	1138.8294726797
5	91611	28593.282928367377	542.84086907611
5	91624	28597.529342342027	2909.6742306983
5	91696	28618.778244204677	1116.0068040658
5	91739	28630.847125717856	1433.8078426261
5	91755	28637.294832232266	1428.6894099597
5	91763	28640.098300332248	263.51631372063
5	91781	28646.458169556639	264.973051523
5	91823	28658.634177466152	2049.4741234976
5	91852	28666.378513016035	2036.1063245396
5	91876	28677.059279737291	1749.5076097576
5	91929	28691.970883854707	1733.992227916
5	91970	28708.047797273515	1410.1642860608
5	91992	28714.02698357985	528.44574171216
5	92029	28725.314731113284	2017.0733173004
5	92059	28733.716310205169	253.12695640889
5	92074	28737.765157976046	2010.0245321655
5	92125	28751.852912942552	1718.2830684799
5	92140	28757.02814915222	789.45132478402
5	92169	28764.787782608018	518.39243694579
5	92186	28770.181395782948	791.0068919221
5	92206	28776.890255447523	3735.08404936
5	92249	28789.737608204084	5640.4298110436
5	92281	28799.042519930239	258.92516096457
5	92286	28800.484577609646	790.11543471715
5	92294	28802.932307315665	3978.5374837873
5	92311	28807.053335918533	257.55488316757
5	92442	28844.353978205708	2027.5923278311
5	92472	28853.681834841757	3996.2620715635
5	92482	28856.517491581156	2298.1356809274
5	92551	28879.603363497419	2861.6437065515
5	92573	28886.080235918102	260.52012049118
5	92576	28887.969849679482	3711.443013047
5	92579	28889.336207709138	1073.5713842063
5	92584	28891.06386195631	262.23984049077
5	92587	28892.393218204428	523.59073858923
5	92618	28900.464720597167	2016.981720325
5	92648	28910.515066506203	1082.097301375
5	92653	28912.215469783779	529.1616800926
5	92699	28925.208469506401	261.52617562364
5	92704	28926.746143783491	2307.9477101431
5	92752	28943.330570842933	788.96481371957
5	92769	28948.363248641278	789.6097498025
5	92816	28962.585432309705	2576.6291345417
5	92829	28967.763324578899	791.02198137709
5	92851	28973.946805746529	1972.6269494038
5	92923	28995.26265134928	259.24443806981
5	92954	29004.397628612119	520.50010030435
5	92957	29005.707313279483	3145.5851979698
5	92963	29008.555009061891	518.79037457068
5	92975	29012.386205174821	1346.8803745982
5	92978	29014.017720056186	1058.6739186805
5	92998	29020.458937764215	262.06507791645
5	93001	29021.86942370371	1345.4517996095
5	93004	29023.594552083919	1971.7855294642
5	93025	29031.200338747584	264.8479305809
5	93074	29045.450705081643	2866.0944706901
5	93085	29049.52217538231	527.2375527519
5	93115	29056.153404383034	526.41074436201
5	93159	29069.435915331029	1058.8733553036
5	93167	29072.683354092062	526.539670942
5	93183	29079.574097801418	1057.5767887163
5	93259	29098.832527737365	271.13385856595
5	93294	29110.071477547707	275.21906351512
5	93302	29113.513291844213	1076.5660756834
5	93355	29131.364475997769	1351.9280860856
5	93407	29148.132144931936	1974.386602978
5	93434	29155.990477504627	276.47178100534
5	93487	29171.082264339784	274.73802917365
5	93502	29175.836063364753	1650.0514812201
5	93505	29177.048303026566	277.64593244412
5	93510	29178.646487091528	534.59705851349
5	93518	29181.749388457323	273.43090543168
5	93531	29186.973497163178	276.95912199181
5	93554	29195.011325459601	276.76773521696
5	93559	29196.424347307579	1356.3561461425
5	93571	29199.588248552241	278.47881611487
5	93574	29201.273975260228	4274.9150102843
5	93595	29210.124479876503	1067.5058536458
5	93631	29222.272996048115	1071.5006824278
5	93682	29236.374921222075	1950.9590652703
5	93720	29246.916611044897	796.8238619346
5	93730	29249.867157407521	280.06566130676
5	93815	29273.418355654409	282.0490315174
5	93832	29278.484444451188	283.02276321428
5	93988	29327.233964801995	544.00446128464
5	93991	29328.759088211177	543.8683427746
5	94004	29333.116030471256	2842.1452867824
5	94007	29334.483824786587	279.22409888371
5	94017	29338.006392425155	278.94451617327
5	94039	29345.072263232662	283.76989006549
5	94054	29349.249269153221	284.07109949916
5	94072	29354.916012932962	3134.7454055225
5	94090	29361.685088657073	3997.6111171063
5	94134	29375.733695155799	288.91667483464
5	94137	29376.973247519739	1950.8209056255
5	94168	29384.805703138604	3159.2770796161
5	94187	29392.341097082986	1094.9616029463
5	94242	29408.701630155597	1366.0254320482
5	94319	29433.390284841174	3428.6083377981
5	94324	29435.114653211498	2579.3406344066
5	94376	29451.652001935467	4008.3636313131
5	94458	29473.632160498797	283.56432162081
5	94468	29476.530671583711	561.9813101012
5	94471	29478.298135325163	3443.5721443694
5	94494	29486.676238406672	563.54913043437
5	94599	29517.499674157276	1619.4432019233
5	94602	29519.020516012273	280.86364975808
5	94614	29525.642468571328	281.61383422662
5	94634	29531.665570491404	281.97819083725
5	94646	29534.816047170424	3412.2535029502
5	94652	29537.986774760523	2546.9457445801
5	94657	29539.716886193157	280.38540004097
5	94677	29545.888425735049	1354.0006180943
5	94697	29552.170261385887	830.11983968803
5	94717	29558.411475424505	829.94708125609
5	94727	29562.206143558062	571.28128786179
5	94769	29575.137922525815	289.66788329928
5	94784	29580.053709114752	2242.9272386615
5	94814	29589.56938567929	2845.4870057477
5	94855	29603.444033161775	565.83752252284
5	94902	29614.462000343613	1095.5324193693
5	94930	29624.307536387666	569.77800768567
5	94938	29627.400770757384	289.26665303137
5	94964	29633.696811844632	288.67250525881
5	94972	29636.808240471259	1104.8841637927
5	94977	29638.626174964234	575.55753760877
5	94982	29640.158598259128	286.55238587704
5	94988	29643.56156017281	846.53648121259
5	94995	29645.484627020023	1108.7840519229
5	94998	29647.097411582283	567.0991865977
5	95003	29648.776716998442	2542.7348063754
5	95244	29722.19072512727	1932.330989258
5	95253	29726.678701051733	1384.0186996206
5	95274	29731.648405492155	4833.4036129469
5	95316	29744.598858859054	290.41123475751
5	95343	29751.935684914924	294.32817185108
5	95390	29766.662910168282	588.48303052197
5	95444	29783.170254417919	1384.9126291982
5	95478	29793.282262039035	572.39686945901
5	95493	29797.925188877656	1389.7963574822
5	95501	29800.823194905593	2233.5152249173
5	95540	29812.301979938373	858.30092051524
5	95550	29815.407409995832	1120.8981303958
5	95570	29822.047579737231	861.90919896396
5	95578	29824.706788443439	3721.6375265641
5	95596	29831.297199687027	290.86839384404
5	95654	29849.95041208271	858.92902353528
5	95729	29871.50377564434	861.49779533403
5	95743	29874.608716155998	288.02865769692
5	95767	29884.384177097528	3412.9598065432
5	95815	29897.722310253456	1651.2957018124
5	95820	29899.515232414603	860.99434638847
5	95847	29907.462763732895	293.2637709899
5	95890	29922.106082543768	578.88843554941
5	95907	29926.03292130515	864.84843064226
5	95922	29931.687052894236	287.54802324182
5	95932	29935.209498796092	4008.0076780919
5	95937	29937.007125289591	856.90159743947
5	95947	29940.301522050837	282.97763616876
5	95966	29945.351815950536	577.55712435875
5	96007	29955.589239480012	578.12559144191
5	96015	29959.155899988153	281.33994297965
5	96021	29962.14155743424	283.80479372298
5	96031	29965.490734155142	875.52604728504
5	96034	29967.38933091391	877.07776799044
5	96092	29986.691366707944	1415.9189767468
5	96098	29989.729519320131	1416.1949690285
5	96123	29997.058988235371	1681.8006720069
6	94	32.811065319994	25.506675897072
6	418	133.58854222491	37.516593873737
6	9783	3079.929423908775	2907.758259575
6	9833	3095.588134887513	2810.149926528
6	9969	3137.739207885114	2737.5601753446
6	13294	4180.628584469733	3616.9283600192
6	13304	4183.851530976658	3534.2934858383
6	13777	4330.427137892758	3390.3156004802

