version 2
run Third_exit_5-18-20191114-11:42:58-9027
attr configname Third_exit_5
attr datetime 20191114-11:42:58
attr experiment Third_exit_5
attr inifile omnetpp.ini
attr iterationvars ""
attr iterationvarsf ""
attr measurement ""
attr network ResponseTimeNetwork
attr processid 9027
attr repetition 18
attr replication #18
attr resultdir results
attr runnumber 18
attr seedset 18
param **.Source.interArrivalTime exponential(6s)
param **.jobPriority bernoulli(0.8)
param **.PS.serviceTimeU1 "uniform(1.2s, 2.0s)"
param **.PS.serviceTimeU2 "uniform(2.4s, 2.8s)"
param **.SS1.serviceTime exponential(1.4s)
param **.SS2.serviceTime exponential(2s)
param **.PS.exitProbability bernoulli(0.5)

vector 0 ResponseTimeNetwork.QueueU1 queueLength:vector ETV
attr interpolationmode sample-hold
attr title "queue length, vector"
vector 1 ResponseTimeNetwork.sink lifeTimeU2:vector ETV
attr interpolationmode none
attr title "lifetime of arrived jobs U2, vector"
attr unit s
vector 2 ResponseTimeNetwork.sink totalServiceTimeU2:vector ETV
attr interpolationmode none
attr title "the total time spent  by arrived jobs U2, vector"
attr unit s
vector 3 ResponseTimeNetwork.sink lifeTime:vector ETV
attr interpolationmode none
attr title "lifetime of arrived jobs, vector"
attr unit s
vector 4 ResponseTimeNetwork.sink totalServiceTime:vector ETV
attr interpolationmode none
attr title "the total time spent  by arrived jobs, vector"
attr unit s
vector 5 ResponseTimeNetwork.sink lifeTimeU1:vector ETV
attr interpolationmode none
attr title "lifetime of arrived jobs U1, vector"
attr unit s
vector 6 ResponseTimeNetwork.sink totalServiceTimeU1:vector ETV
attr interpolationmode none
attr title "the total time spent  by arrived jobs U1, vector"
attr unit s
vector 7 ResponseTimeNetwork.SS1 queueLength:vector ETV
attr interpolationmode sample-hold
attr title "queue length, vector"
vector 8 ResponseTimeNetwork.QueueU2 queueLength:vector ETV
attr interpolationmode sample-hold
attr title "queue length, vector"
vector 9 ResponseTimeNetwork.SS2 queueLength:vector ETV
attr interpolationmode sample-hold
attr title "queue length, vector"
0	17890	10001.605403719917	1
0	17891	10001.911326167088	0
0	17945	10045.078950590057	1
0	17946	10045.376550262018	0
0	17950	10046.618977987735	1
0	17951	10046.85668551211	0
0	17955	10046.877624630426	1
0	17956	10048.41126666513	0
0	17960	10048.461026267491	1
0	17962	10049.356673778324	2
0	17963	10049.621498182758	1
0	17966	10051.201425962678	0
0	17975	10057.89243480147	1
0	17976	10059.08174742612	0
0	17980	10059.541696572822	1
0	17981	10060.645847813254	0
0	18000	10069.476653435107	1
0	18001	10070.109716796714	0
0	18030	10139.679740752409	1
0	18031	10140.236550386095	0
0	18040	10143.485183720638	1
0	18041	10144.618912341319	0
0	18045	10145.423109900759	1
0	18047	10146.402130665014	2
0	18048	10146.414421005793	1
0	18051	10147.79844834736	0
0	18080	10179.698928786341	1
0	18081	10179.86353780783	0
0	18120	10213.626630476135	1
0	18121	10215.018573199154	0
0	18125	10215.080098962497	1
0	18127	10215.216224008088	2
0	18129	10215.346325276563	3
0	18131	10215.463201448692	4
0	18132	10216.227214362414	3
0	18135	10218.041397252062	2
0	18138	10219.957350125292	1
0	18141	10221.69506110599	0
0	18155	10226.841329581638	1
0	18156	10227.732391204806	0
0	18160	10227.870931213639	1
0	18162	10229.503324511627	2
0	18163	10229.622494645351	1
0	18167	10229.801082503558	2
0	18168	10231.186341174254	1
0	18171	10232.618246417986	0
0	18205	10252.197043750665	1
0	18206	10253.463494225558	0
0	18220	10265.471885307324	1
0	18221	10265.583490721708	0
0	18230	10273.331244482544	1
0	18232	10274.489322648202	2
0	18233	10275.04444748336	1
0	18237	10275.453305078561	2
0	18238	10276.685913989186	1
0	18241	10278.507365600258	0
0	18247	10279.871607320915	1
0	18248	10280.132368960656	0
0	18252	10281.17675949671	1
0	18253	10281.37966286359	0
0	18257	10282.372580074574	1
0	18258	10282.652998557925	0
0	18262	10282.935023981116	1
0	18263	10284.227797265216	0
0	18267	10285.321251751067	1
0	18268	10285.751589763588	0
0	18275	10287.892879909941	1
0	18276	10288.691968783974	0
0	18290	10297.015658644791	1
0	18291	10297.334148488167	0
0	18325	10357.842743300427	1
0	18326	10358.003274314881	0
0	18330	10358.127370719026	1
0	18331	10359.286804581464	0
0	18335	10359.893862931917	1
0	18336	10360.491729385995	0
0	18350	10367.97230784259	1
0	18351	10368.510029382269	0
0	18355	10368.987272904778	1
0	18356	10370.187217497277	0
0	18370	10379.72814617787	1
0	18372	10379.763995370421	2
0	18373	10380.348923724933	1
0	18376	10381.765997016101	0
0	18395	10390.029626592265	1
0	18396	10390.135869975368	0
0	18400	10391.971360994517	1
0	18401	10392.039251925776	0
0	18405	10392.262881295573	1
0	18406	10393.266708598079	0
0	18410	10394.535641106532	1
0	18411	10394.595612597259	0
0	18415	10395.726776721094	1
0	18418	10396.443016776609	0
0	18422	10397.151567020208	1
0	18423	10398.250343631002	0
0	18442	10405.20497805012	1
0	18444	10405.643265815687	2
0	18446	10406.559216369946	3
0	18447	10406.697407667433	2
0	18450	10408.483416654077	1
0	18454	10409.682906109823	2
0	18455	10409.922774887179	1
0	18458	10411.271140173172	0
0	18462	10411.289749490382	1
0	18464	10411.393652758018	2
0	18467	10412.803576910031	1
0	18470	10414.420507422929	0
0	18474	10415.537463612077	1
0	18475	10415.711010728685	0
0	18485	10418.963950764858	1
0	18489	10419.119521495206	2
0	18490	10420.215809852725	1
0	18495	10421.921053305736	0
0	18499	10422.049789136302	1
0	18501	10422.544357478088	2
0	18502	10423.250924806578	1
0	18506	10424.634763291197	2
0	18507	10424.709044205865	1
0	18510	10426.260796493759	0
0	18517	10427.991587540706	1
0	18518	10429.603834389245	0
0	18522	10430.400735683552	1
0	18523	10431.103203087395	0
0	18527	10431.886309091883	1
0	18528	10432.764130218422	0
0	18534	10433.651212038046	1
0	18535	10434.750099788887	0
0	18544	10436.504436292974	1
0	18545	10437.732592313458	0
0	18585	10461.121545343123	1
0	18586	10462.139059091505	0
0	18600	10467.133508926811	1
0	18602	10467.879428368024	2
0	18603	10468.72386056585	1
0	18607	10468.830876219681	2
0	18611	10469.835680520038	3
0	18612	10470.288806026706	2
0	18615	10471.583432288	1
0	18619	10473.061147267265	2
0	18620	10473.503582258613	1
0	18624	10473.594461125165	2
0	18626	10473.629757427691	3
0	18627	10475.107201203049	2
0	18630	10476.565341908016	1
0	18634	10476.631816504954	2
0	18635	10478.483585109093	1
0	18638	10480.133117791355	0
0	18655	10488.174657591707	1
0	18656	10488.926235904049	0
0	18685	10506.56327129873	1
0	18686	10507.897665112118	0
0	18695	10509.823069205504	1
0	18696	10511.415213132483	0
0	18727	10538.772114658405	1
0	18728	10539.715233926346	0
0	18735	10541.954619747962	1
0	18736	10542.729180897084	0
0	18760	10557.507599127733	1
0	18762	10558.572249445555	2
0	18763	10559.227616721795	1
0	18767	10559.866000581934	2
0	18768	10560.607249732719	1
0	18771	10562.58615957185	0
0	18775	10562.829740420377	1
0	18776	10564.189624788457	0
0	18780	10565.534738225039	1
0	18781	10565.953412757659	0
0	18790	10567.97737984789	1
0	18792	10568.401022381855	2
0	18793	10569.589494046886	1
0	18796	10571.347013769616	0
0	18840	10591.015558716048	1
0	18841	10591.988721730754	0
0	18845	10593.355274000352	1
0	18846	10593.658385236941	0
0	18855	10596.391166965675	1
0	18858	10598.058061687647	0
0	18875	10603.491605939587	1
0	18876	10604.642284276841	0
0	18897	10622.688028044647	1
0	18898	10622.873111660982	0
0	18920	10633.175926911298	1
0	18923	10634.009449246575	0
0	18927	10634.49814876504	1
0	18929	10635.03291913055	2
0	18931	10635.614266565948	3
0	18932	10635.70851135203	2
0	18936	10636.64330081148	3
0	18937	10637.226103201558	2
0	18940	10638.54471031451	1
0	18943	10639.788403309	0
0	18950	10641.340703462585	1
0	18952	10641.597130188058	2
0	18953	10642.892289569465	1
0	18956	10644.195933006567	0
0	18965	10646.933365321031	1
0	18966	10647.29141682393	0
0	18980	10655.094904811901	1
0	18981	10655.479225953417	0
0	18985	10655.645709378619	1
0	18986	10657.21526914754	0
0	19030	10709.654511931522	1
0	19031	10710.664581979762	0
0	19040	10725.424897743864	1
0	19041	10725.78011269294	0
0	19055	10732.920825413469	1
0	19056	10733.896030271324	0
0	19070	10739.329564115932	1
0	19071	10740.403939370886	0
0	19085	10746.58635316089	1
0	19086	10747.699474761111	0
0	19090	10749.423295975429	1
0	19092	10749.560922042492	2
0	19093	10749.647953009268	1
0	19097	10750.045730325469	2
0	19098	10750.893197393639	1
0	19101	10752.395271119883	0
0	19105	10752.594342073724	1
0	19106	10753.618184996618	0
0	19110	10753.986113943891	1
0	19111	10755.424316262489	0
0	19120	10757.384538980302	1
0	19121	10758.441877114319	0
0	19125	10758.73034172075	1
0	19127	10759.069291326495	2
0	19128	10760.062607908913	1
0	19132	10760.649450422127	2
0	19133	10761.534016867087	1
0	19138	10763.185202776373	0
0	19145	10764.790258193929	1
0	19146	10766.176393419982	0
0	19157	10768.825082230219	1
0	19160	10769.748701707798	0
0	19220	10799.606586424066	1
0	19221	10800.94705373769	0
0	19232	10803.231466702531	1
0	19233	10804.050687091549	0
0	19240	10806.089255964819	1
0	19242	10806.414228114857	2
0	19245	10806.748167071615	1
0	19248	10808.303810673331	0
0	19252	10808.436690596758	1
0	19253	10809.767531815295	0
0	19260	10811.613989768571	1
0	19261	10813.394031412279	0
0	19290	10844.896994908362	1
0	19291	10846.320588748178	0
0	19300	10849.191990277036	1
0	19302	10850.643903593071	2
0	19303	10851.023981013508	1
0	19306	10852.573330068761	0
0	19310	10852.950262996651	1
0	19311	10854.286363760555	0
0	19335	10897.323821501711	1
0	19336	10899.036358421882	0
0	19362	10911.043441849643	1
0	19363	10911.640684023153	0
0	19367	10913.207325591106	1
0	19368	10913.367017183479	0
0	19375	10916.387208965872	1
0	19376	10916.78828808612	0
0	19380	10917.465685564844	1
0	19381	10918.78240218221	0
0	19400	10941.472787417757	1
0	19401	10943.048173953324	0
0	19435	10981.14612727014	1
0	19436	10982.006610755152	0
0	19470	11012.836705719937	1
0	19477	11014.047281348465	0
0	19481	11014.874712062294	1
0	19482	11015.995366917683	0
0	19495	11021.714672039488	1
0	19496	11022.514182891642	0
0	19510	11025.178860366457	1
0	19514	11025.86990270835	2
0	19515	11026.679523232153	1
0	19518	11027.972006437129	0
0	19525	11029.741100812595	1
0	19528	11031.162544493697	0
0	19535	11033.826640644041	1
0	19536	11034.270145785755	0
0	19555	11045.315878386314	1
0	19556	11046.502229470965	0
0	19560	11046.892977782363	1
0	19561	11047.837762330492	0
0	19565	11048.542573521962	1
0	19566	11049.736244472881	0
0	19570	11050.29426102158	1
0	19571	11050.954730881212	0
0	19575	11051.452084960301	1
0	19576	11052.766679072959	0
0	19615	11090.462490678135	1
0	19616	11090.804856255455	0
0	19625	11093.617923005095	1
0	19626	11094.640677491394	0
0	19635	11099.027338389419	1
0	19636	11099.337836667576	0
0	19650	11107.430683177771	1
0	19651	11108.344989765844	0
0	19660	11110.76495980173	1
0	19661	11111.962632650545	0
0	19675	11124.285829313834	1
0	19676	11124.398544841651	0
0	19695	11153.784129894079	1
0	19696	11154.226696546731	0
0	19710	11161.633058180942	1
0	19711	11161.662834354125	0
0	19715	11162.045724611558	1
0	19716	11163.605627629541	0
0	19725	11166.360206133423	1
0	19726	11167.785058491263	0
0	19735	11173.32678924072	1
0	19736	11174.881690543924	0
0	19740	11175.677274206415	1
0	19741	11176.487799760547	0
0	19750	11180.430559734977	1
0	19751	11180.585417399621	0
0	19760	11185.958102035973	1
0	19761	11187.66346709963	0
0	19765	11188.746864480305	1
0	19767	11189.120386409673	2
0	19769	11189.259524294475	3
0	19770	11189.462702559792	2
0	19773	11191.112279659249	1
0	19777	11191.36942194072	2
0	19779	11191.407565943027	3
0	19781	11192.188959522403	4
0	19782	11192.4324026284	3
0	19785	11194.094598866553	2
0	19789	11194.148046894491	3
0	19790	11195.606471482218	2
0	19793	11197.187042436489	1
0	19797	11197.671996330327	2
0	19798	11198.884872557149	1
0	19802	11199.764941172856	2
0	19803	11200.497347932049	1
0	19807	11200.763554642997	2
0	19808	11202.423742812053	1
0	19812	11202.628464514085	2
0	19813	11203.993367538714	1
0	19817	11204.145193552362	2
0	19818	11205.734896412977	1
0	19821	11207.562064870001	0
0	19825	11207.780715687255	1
0	19826	11208.862585774177	0
0	19835	11211.08171742153	1
0	19836	11212.238673459072	0
0	19840	11212.467082939942	1
0	19842	11213.836273270804	2
0	19843	11214.042339509432	1
0	19846	11215.968661227715	0
0	19855	11218.788382588126	1
0	19858	11219.950370078936	0
0	19867	11222.008083677578	1
0	19869	11222.073010344837	2
0	19871	11223.36717560173	3
0	19872	11223.487412023947	2
0	19877	11225.060677216232	1
0	19880	11226.998652213097	0
0	19884	11227.222578970962	1
0	19885	11228.839518537403	0
0	19889	11229.000476826305	1
0	19891	11229.887195490076	2
0	19892	11230.537191049413	1
0	19895	11231.867657484518	0
0	19899	11232.23703854635	1
0	19900	11233.20589237626	0
0	19904	11233.883106303326	1
0	19905	11234.983273401887	0
0	19915	11238.701485596675	1
0	19917	11239.879086966011	2
0	19918	11240.005790450454	1
0	19921	11241.586247046694	0
0	19930	11243.473106588976	1
0	19931	11245.073842786096	0
0	19975	11278.837393495588	1
0	19976	11280.688567738405	0
0	19995	11291.514040238688	1
0	19996	11292.839278090504	0
0	20000	11293.286483434748	1
0	20001	11294.715326479581	0
0	20010	11299.44419839954	1
0	20011	11299.56114454835	0
0	20015	11300.45716561783	1
0	20017	11301.282173306748	2
0	20018	11301.355867343091	1
0	20022	11301.515101400928	2
0	20024	11302.350153990035	3
0	20025	11302.906773911484	2
0	20029	11304.25184827609	3
0	20030	11304.809717836298	2
0	20034	11304.832476463506	3
0	20036	11306.193353427692	4
0	20037	11306.717418587089	3
0	20040	11308.239645612866	2
0	20044	11308.483301913478	3
0	20046	11308.582343899176	4
0	20047	11310.230746315301	3
0	20050	11311.697681288675	2
0	20054	11312.760701616088	3
0	20055	11313.042746332355	2
0	20058	11314.84574010323	1
0	20061	11316.059188459322	0
0	20065	11316.506505891815	1
0	20066	11317.935891432941	0
0	20070	11318.60886088158	1
0	20071	11319.713304890201	0
0	20075	11320.474288716127	1
0	20078	11321.580525071428	0
0	20082	11322.52603495067	1
0	20083	11323.430275550552	0
0	20087	11324.465643638423	1
0	20089	11324.671827130896	2
0	20090	11324.97712174847	1
0	20094	11325.448933469938	2
0	20096	11326.26601899569	3
0	20097	11326.759836492941	2
0	20100	11328.286152475953	1
0	20104	11328.906914673689	2
0	20105	11329.532449708201	1
0	20109	11329.797093013305	2
0	20110	11331.073777749084	1
0	20113	11332.39894974909	0
0	20120	11333.997202621862	1
0	20121	11335.502840125441	0
0	20135	11338.987419598798	1
0	20137	11339.673636336814	2
0	20138	11339.857968944031	1
0	20141	11341.545391986425	0
0	20145	11341.752410440587	1
0	20146	11343.496339133101	0
0	20150	11343.964355340863	1
0	20151	11345.218116369935	0
0	20155	11345.551791665327	1
0	20156	11346.505281292552	0
0	20160	11347.361056152752	1
0	20161	11347.728181414956	0
0	20175	11357.888119050195	1
0	20176	11359.187117396978	0
0	20185	11361.168308596413	1
0	20187	11362.286502954896	2
0	20188	11362.506413995546	1
0	20191	11364.321258333769	0
0	20195	11365.043156225104	1
0	20196	11365.67637916885	0
0	20200	11366.612057836869	1
0	20201	11367.011277121936	0
0	20205	11367.163829670332	1
0	20206	11368.310878517923	0
0	20210	11369.810791753637	1
0	20211	11370.256702760679	0
0	20220	11372.187896209392	1
0	20221	11372.844651906451	0
0	20225	11373.106408390325	1
0	20227	11373.570380792279	2
0	20230	11374.650467422863	1
0	20234	11375.257010571959	2
0	20235	11376.020961548088	1
0	20239	11376.491376289839	2
0	20240	11377.60858844321	1
0	20244	11378.297320616654	2
0	20245	11379.279277655182	1
0	20248	11380.648724454341	0
0	20257	11382.824172114587	1
0	20258	11383.911178472338	0
0	20320	11420.843155789869	1
0	20321	11421.781664058091	0
0	20335	11431.60573132814	1
0	20336	11432.252884737751	0
0	20355	11440.389481825883	1
0	20356	11441.322540660016	0
0	20380	11449.001778794222	1
0	20382	11449.102502852636	2
0	20383	11450.390038529941	1
0	20387	11450.657998722627	2
0	20388	11451.989481452637	1
0	20392	11452.050448263441	2
0	20393	11453.245852446154	1
0	20396	11454.56859146335	0
0	20400	11455.11853710944	1
0	20401	11455.829132423707	0
0	20430	11478.387591956733	1
0	20431	11479.319877763635	0
0	20437	11480.960840583806	1
0	20438	11481.042528674921	0
0	20445	11483.251346549229	1
0	20446	11484.266407400725	0
0	20477	11501.410037053156	1
0	20478	11501.540937187421	0
0	20482	11501.55957125112	1
0	20483	11502.821496260251	0
0	20487	11503.995770724939	1
0	20488	11504.168962054971	0
0	20495	11506.136476280421	1
0	20496	11507.505844865452	0
0	20520	11532.610808510468	1
0	20521	11532.912177884681	0
0	20560	11595.647402663385	1
0	20563	11596.360415980839	0
0	20567	11597.494705556573	1
0	20568	11597.587006097347	0
0	20575	11599.60975548806	1
0	20576	11600.738650528029	0
0	20595	11620.474403573652	1
0	20596	11621.501588934546	0
0	20600	11622.495198066613	1
0	20601	11622.729513022748	0
0	20665	11671.516220114463	1
0	20666	11672.677522540109	0
0	20670	11673.244051006078	1
0	20671	11674.435538643056	0
0	20675	11674.737285798392	1
0	20676	11675.868737869353	0
0	20690	11702.850708846631	1
0	20691	11703.868488724216	0
0	20700	11706.404792070598	1
0	20701	11707.398530002554	0
0	20705	11708.649464789524	1
0	20706	11709.033307088596	0
0	20735	11721.771385892777	1
0	20738	11722.933502760778	0
0	20745	11724.987894726917	1
0	20747	11725.368883670463	2
0	20748	11726.388584499868	1
0	20751	11727.606805857333	0
0	20760	11730.49853914616	1
0	20761	11731.826037672435	0
0	20765	11732.697858884173	1
0	20766	11733.457985753839	0
0	20820	11842.219499152894	1
0	20822	11842.455625496649	2
0	20823	11843.301694957631	1
0	20827	11843.396700471584	2
0	20828	11844.921495058107	1
0	20832	11845.443776187503	2
0	20834	11846.435465492632	3
0	20835	11846.841730784717	2
0	20838	11848.762917321454	1
0	20841	11850.624331861268	0
0	20850	11858.814181497973	1
0	20851	11859.596766934499	0
0	20855	11860.049996923119	1
0	20856	11861.038990225784	0
0	20860	11862.421714044067	1
0	20861	11862.976438651934	0
0	20910	11917.819943944322	1
0	20911	11918.211794078333	0
0	20920	11921.386031336062	1
0	20921	11921.574966382884	0
0	20925	11921.834421866766	1
0	20926	11923.190795714312	0
0	20945	11940.072723941179	1
0	20946	11940.596041608529	0
0	20950	11941.407269762043	1
0	20953	11941.943759412991	0
0	20982	11974.074354127311	1
0	20983	11975.248853115383	0
0	20995	11980.357256087814	1
0	20996	11980.963954028691	0
0	21002	11982.818241271531	1
0	21003	11982.89236420581	0
0	21030	11991.678474976121	1
0	21033	11992.865685169241	0
0	21040	11995.096730766233	1
0	21041	11995.755506197951	0
0	21100	12047.500778686639	1
0	21101	12048.9453765442	0
0	21105	12049.170886219681	1
0	21106	12050.538792213924	0
0	21125	12071.476128445314	1
0	21126	12071.726402214456	0
0	21140	12076.811495351326	1
0	21141	12078.21047339358	0
0	21145	12078.42392848673	1
0	21146	12079.774560452184	0
0	21195	12127.807331138976	1
0	21197	12128.309862210701	2
0	21198	12128.760182573069	1
0	21202	12129.430640533233	2
0	21204	12130.106275096394	3
0	21205	12130.242130616289	2
0	21209	12130.383457232548	3
0	21210	12131.72193870226	2
0	21214	12132.746432219211	3
0	21215	12133.169744720851	2
0	21218	12135.064499038254	1
0	21221	12136.750237464515	0
0	21225	12137.605208352085	1
0	21226	12138.033456511219	0
0	21235	12141.497464856992	1
0	21237	12141.639633822591	2
0	21238	12142.306562956524	1
0	21242	12142.320714571322	2
0	21243	12144.023743123104	1
0	21247	12145.195160796741	2
0	21248	12145.987972523001	1
0	21252	12147.560884071165	2
0	21253	12147.577633281154	1
0	21256	12149.389481899617	0
0	21260	12150.657199352867	1
0	21261	12151.235685785217	0
0	21265	12152.274712261829	1
0	21266	12152.629720595768	0
0	21275	12156.556975241335	1
0	21276	12156.855941658455	0
0	21280	12157.072545194218	1
0	21281	12158.500334579113	0
0	21285	12159.023655502136	1
0	21287	12159.237864821418	2
0	21288	12159.880045137356	1
0	21292	12160.478867690379	2
0	21293	12161.374227547075	1
0	21297	12162.056180423417	2
0	21298	12163.19744402467	1
0	21302	12164.270011240602	2
0	21304	12164.490458008833	3
0	21306	12164.811481483499	4
0	21307	12164.823899544018	3
0	21311	12165.81567421889	4
0	21312	12166.313512388232	3
0	21316	12166.491579758737	4
0	21317	12167.583398797165	3
0	21320	12169.126123965334	2
0	21323	12170.747039704759	1
0	21327	12170.862560955745	2
0	21328	12172.604265836988	1
0	21331	12173.971281355236	0
0	21335	12174.178872987811	1
0	21337	12174.831492044075	2
0	21338	12175.296017752391	1
0	21342	12175.821447285721	2
0	21343	12176.976577693772	1
0	21346	12178.566859538097	0
0	21350	12178.615305486465	1
0	21351	12179.872966884811	0
0	21360	12185.507932863357	1
0	21361	12186.062090106369	0
0	21365	12186.381105895022	1
0	21366	12187.454543715031	0
0	21370	12187.680316926014	1
0	21372	12187.701859717242	2
0	21374	12188.369726039902	3
0	21375	12189.353441059464	2
0	21379	12189.822313270978	3
0	21380	12191.229477360533	2
0	21383	12193.081162679815	1
0	21386	12194.747783578621	0
0	21395	12197.058227190715	1
0	21397	12197.404173541152	2
0	21398	12197.936700768712	1
0	21401	12199.140224393587	0
0	21405	12199.893939523837	1
0	21406	12200.686173860114	0
0	21410	12200.960522200096	1
0	21411	12202.446067109462	0
0	21415	12202.867238139951	1
0	21417	12203.111808947673	2
0	21419	12203.123891633086	3
0	21421	12203.452276107385	4
0	21422	12203.976648337711	3
0	21425	12205.605371092949	2
0	21428	12207.415486967321	1
0	21432	12208.404920554317	2
0	21433	12208.9038623094	1
0	21436	12210.152592923064	0
0	21440	12210.306689399703	1
0	21441	12211.625048469138	0
0	21470	12230.441605454106	1
0	21471	12230.516968752244	0
0	21482	12235.276195177515	1
0	21483	12235.344592304282	0
0	21495	12239.281618757786	1
0	21497	12239.539522921146	2
0	21498	12240.060005788084	1
0	21501	12241.278516089495	0
0	21535	12264.455207809686	1
0	21536	12265.459233932732	0
0	21590	12328.824529741237	1
0	21591	12329.48160743225	0
0	21600	12333.699153544134	1
0	21601	12333.765589758954	0
0	21610	12337.261743347133	1
0	21611	12338.586328157802	0
0	21615	12339.640466617375	1
0	21617	12339.989079417968	2
0	21618	12340.355009370875	1
0	21621	12341.597291390431	0
0	21630	12344.137973934525	1
0	21631	12345.407990689105	0
0	21660	12361.103767208356	1
0	21661	12362.531317062468	0
0	21665	12362.738589549819	1
0	21666	12364.362202010282	0
0	21670	12364.811249252204	1
0	21671	12366.151819845081	0
0	21695	12373.073149800261	1
0	21698	12374.065528280857	0
0	21710	12378.660052210346	1
0	21711	12379.029619586413	0
0	21735	12389.909370770353	1
0	21736	12391.698521366196	0
0	21745	12396.133780848588	1
0	21746	12396.148946751263	0
0	21750	12396.933531851382	1
0	21752	12397.116115345262	2
0	21753	12397.515993278269	1
0	21757	12397.761346398206	2
0	21759	12398.39312018618	3
0	21760	12398.783565214444	2
0	21764	12399.270724472187	3
0	21765	12400.089201619085	2
0	21769	12401.40670493482	3
0	21770	12401.852990154158	2
0	21774	12401.883083049504	3
0	21775	12403.655060592275	2
0	21781	12403.774803382992	3
0	21784	12405.559421018492	2
0	21788	12405.595532455569	3
0	21789	12407.352236098032	2
0	21793	12407.365205784181	3
0	21794	12409.102032841537	2
0	21797	12410.910299102943	1
0	21800	12412.413025466334	0
0	21807	12415.102523038517	1
0	21808	12415.741654689032	0
0	21812	12415.973539576837	1
0	21813	12417.355828652139	0
0	21830	12427.692940408727	1
0	21831	12429.314039957345	0
0	21845	12437.761441209677	1
0	21846	12438.163781000752	0
0	21862	12443.247385957068	1
0	21863	12444.054132035933	0
0	21867	12445.792750651826	1
0	21868	12445.949136433191	0
0	21872	12446.174380215944	1
0	21873	12447.868430414423	0
0	21920	12486.219827152023	1
0	21921	12487.393745788487	0
0	21940	12496.324639097347	1
0	21943	12497.390781001888	0
0	21947	12497.763176049756	1
0	21948	12498.894754291653	0
0	21955	12501.862061564692	1
0	21956	12502.151031923063	0
0	21960	12502.269839286984	1
0	21963	12503.67784885443	0
0	21970	12505.381745116654	1
0	21971	12506.433780516266	0
0	22115	12613.398562719436	1
0	22117	12614.331386099194	2
0	22118	12614.621920396955	1
0	22121	12615.825883919382	0
0	22125	12616.401120864529	1
0	22127	12616.429724322198	2
0	22130	12617.615140790129	1
0	22134	12618.145124809222	2
0	22135	12619.300740065062	1
0	22139	12620.622760342688	2
0	22140	12620.961340771624	1
0	22143	12622.556849286341	0
0	22150	12624.616900118895	1
0	22152	12625.865603944573	2
0	22153	12625.971760396482	1
0	22158	12627.395209222855	0
0	22162	12627.801635222746	1
0	22163	12629.231276076855	0
0	22170	12631.953457891302	1
0	22171	12632.525588675784	0
0	22180	12634.125919340357	1
0	22182	12634.235093045504	2
0	22183	12635.737319421591	1
0	22187	12636.865262164851	2
0	22188	12637.590509830238	1
0	22194	12637.926114774347	2
0	22195	12639.557499158764	1
0	22198	12641.166656566793	0
0	22205	12643.469552272419	1
0	22206	12644.227195204804	0
0	22212	12645.615149355457	1
0	22213	12645.711680130856	0
0	22225	12665.024239356235	1
0	22226	12665.500811146212	0
0	22230	12665.558862434634	1
0	22231	12666.939904695575	0
0	22240	12674.891096503159	1
0	22241	12675.184887890135	0
0	22252	12677.705888420046	1
0	22253	12678.996481963731	0
0	22265	12686.284888179208	1
0	22267	12686.874470072509	2
0	22268	12687.017525885476	1
0	22271	12688.338295153005	0
0	22280	12709.541959688667	1
0	22282	12709.72160315564	2
0	22284	12710.635005595658	3
0	22286	12710.834914533546	4
0	22287	12711.132373940907	3
0	22292	12712.578498234748	2
0	22295	12713.971707616336	1
0	22299	12714.04930397469	2
0	22301	12715.195434034102	3
0	22302	12715.381074875928	2
0	22305	12717.309797080382	1
0	22308	12718.740357119738	0
0	22312	12719.018586523713	1
0	22313	12719.988372444137	0
0	22317	12720.169030235069	1
0	22319	12720.569978230664	2
0	22321	12720.74392362786	3
0	22322	12721.687178002446	2
0	22325	12723.472181384786	1
0	22329	12724.92767051073	2
0	22330	12725.075877940617	1
0	22334	12725.922608953947	2
0	22335	12726.593167197294	1
0	22339	12726.977578805004	2
0	22341	12727.352875117608	3
0	22342	12728.204784214459	2
0	22345	12730.162060416825	1
0	22351	12730.408833749967	2
0	22353	12731.340926126816	3
0	22356	12732.151154861189	2
0	22360	12732.354601215002	3
0	22361	12733.430216029435	2
0	22365	12734.318274940349	3
0	22366	12734.900503652691	2
0	22369	12736.648974045887	1
0	22374	12738.039386470578	0
0	22405	12756.14074570179	1
0	22406	12756.308646454787	0
0	22410	12756.617625457965	1
0	22411	12757.885854454091	0
0	22415	12757.961976515664	1
0	22416	12759.439770621186	0
0	22420	12759.477885195971	1
0	22421	12761.194243970265	0
0	22425	12762.054313458104	1
0	22427	12762.169768480827	2
0	22428	12762.484114525591	1
0	22432	12763.916450501737	2
0	22433	12764.050222594042	1
0	22436	12765.542820139912	0
0	22440	12766.106181178508	1
0	22442	12766.34745290347	2
0	22443	12767.021520636355	1
0	22449	12767.933001677148	2
0	22450	12768.236232203928	1
0	22453	12769.953337007326	0
0	22459	12770.600870982286	1
0	22460	12771.441637159635	0
0	22464	12772.031099607885	1
0	22465	12772.957824786503	0
0	22500	12787.771506955394	1
0	22501	12789.04686875885	0
0	22505	12790.08574021857	1
0	22506	12790.733165127985	0
0	22510	12790.829848903687	1
0	22511	12792.139997418798	0
0	22535	12805.810000685635	1
0	22536	12806.083376444665	0
0	22540	12807.206992490867	1
0	22541	12807.992500238654	0
0	22545	12809.437583201976	1
0	22546	12809.694348767933	0
0	22550	12809.740318397607	1
0	22551	12811.208187166576	0
0	22555	12811.243263161285	1
0	22557	12811.836743939481	2
0	22558	12813.034037888025	1
0	22562	12813.096563756696	2
0	22564	12814.175206471157	3
0	22565	12814.496220301998	2
0	22568	12816.449060353053	1
0	22573	12817.79606724528	0
0	22620	12858.080718704196	1
0	22621	12858.86774332387	0
0	22650	12877.020145707433	1
0	22651	12877.823873836854	0
0	22665	12887.293911281947	1
0	22666	12888.146162560747	0
0	22675	12905.740474966107	1
0	22676	12906.709779667106	0
0	22685	12912.304236287567	1
0	22686	12912.949166182886	0
0	22750	12977.180779110875	1
0	22752	12977.256782583565	2
0	22753	12978.169927360386	1
0	22757	12978.171323464981	2
0	22758	12979.37349916891	1
0	22762	12980.445057131922	2
0	22763	12980.604168627493	1
0	22766	12982.140587383777	0
0	22775	12985.008696995555	1
0	22776	12985.155285919744	0
0	22780	12986.004999545168	1
0	22781	12987.033559573914	0
0	22785	12988.145462458213	1
0	22786	12988.591391075502	0
0	22790	12989.911822054866	1
0	22792	12989.953592478178	2
0	22793	12990.568206360849	1
0	22797	12990.837954226835	2
0	22799	12991.498129615838	3
0	22800	12991.974375462259	2
0	22804	12992.176769744832	3
0	22805	12993.478203846986	2
0	22808	12995.403335150244	1
0	22814	12996.900083907739	2
0	22815	12997.353259047779	1
0	22818	12998.894840774971	0
0	22822	13000.133001462306	1
0	22823	13000.399154331262	0
0	22830	13001.950762137571	1
0	22831	13003.654820337246	0
0	22835	13004.104245118699	1
0	22836	13005.619143909315	0
0	22850	13010.463279368192	1
0	22851	13010.965903844386	0
0	22880	13037.206196091404	1
0	22881	13038.960764460513	0
0	22885	13039.27247947392	1
0	22886	13040.55054691738	0
0	22892	13040.904487008328	1
0	22893	13042.353616743223	0
0	22897	13043.352412575464	1
0	22898	13043.962801822894	0
0	22925	13061.485263062084	1
0	22926	13062.500700686898	0
0	22930	13063.818670290928	1
0	22931	13063.899744232211	0
0	22935	13064.19503835341	1
0	22936	13065.373241883915	0
0	22942	13065.813551286922	1
0	22943	13067.361717792627	0
0	22947	13067.403402744647	1
0	22949	13067.484930248173	2
0	22951	13068.784361310866	3
0	22952	13068.901309944157	2
0	22956	13068.957324367758	3
0	22957	13070.186233423491	2
0	22961	13070.736083337878	3
0	22963	13070.959398138141	4
0	22964	13071.467474734996	3
0	22967	13073.284715019379	2
0	22970	13074.711654143062	1
0	22974	13075.930105816706	2
0	22975	13076.637960880276	1
0	22979	13076.697556866791	2
0	22980	13078.318658767108	1
0	22983	13079.926668243509	0
0	22987	13081.006101937823	1
0	22988	13081.340473053444	0
0	22992	13082.436384774354	1
0	22993	13082.768027526166	0
0	22997	13082.818761926466	1
0	22999	13083.864354286102	2
0	23001	13083.942010065429	3
0	23002	13084.277675234366	2
0	23006	13084.652237754762	3
0	23008	13085.222991740521	4
0	23009	13085.984896462064	3
0	23013	13087.171004869324	4
0	23014	13087.381188877698	3
0	23018	13088.684727733541	4
0	23019	13088.706883911256	3
0	23023	13089.431764346898	4
0	23025	13089.66665546118	5
0	23026	13090.595403421697	4
0	23030	13090.967482850444	5
0	23031	13092.580305432183	4
0	23034	13094.136555433114	3
0	23038	13094.83896535426	4
0	23039	13095.69921025711	3
0	23043	13096.533641310344	4
0	23044	13097.647375080203	3
0	23047	13098.883257105043	2
0	23051	13099.186150401023	3
0	23052	13100.256731812125	2
0	23055	13101.887778192228	1
0	23059	13102.020889456184	2
0	23060	13103.088684886722	1
0	23064	13104.264614686819	2
0	23065	13105.059900915464	1
0	23068	13106.964560299022	0
0	23074	13107.498856879574	1
0	23075	13108.911272974154	0
0	23085	13112.965185446603	1
0	23086	13113.31790929309	0
0	23152	13161.34735115065	1
0	23153	13162.330187415094	0
0	23160	13164.226818908929	1
0	23162	13165.164407783347	2
0	23164	13165.355318163802	3
0	23165	13166.112408962795	2
0	23170	13167.449741993421	1
0	23174	13168.374726414728	2
0	23175	13169.416401301273	1
0	23178	13170.636524455757	0
0	23182	13171.018536195722	1
0	23183	13172.441652948917	0
0	23187	13172.954911388184	1
0	23189	13173.040209730602	2
0	23190	13174.099336962537	1
0	23193	13175.656697279164	0
0	23197	13175.712317597706	1
0	23198	13177.36231912239	0
0	23205	13178.963175326799	1
0	23207	13179.125976080972	2
0	23208	13180.007568371059	1
0	23211	13181.245661547357	0
0	23215	13181.527342988867	1
0	23216	13182.732688834654	0
0	23245	13198.189308629987	1
0	23246	13199.675945292845	0
0	23250	13200.87975355884	1
0	23251	13201.42433071459	0
0	23255	13202.677571065814	1
0	23256	13203.420008778072	0
0	23260	13203.422711195829	1
0	23261	13205.279987982906	0
0	23290	13223.158260059903	1
0	23292	13223.389624972865	2
0	23293	13224.357049490115	1
0	23297	13225.573707031437	2
0	23299	13225.850117833246	3
0	23300	13225.891051749116	2
0	23303	13227.207321473746	1
0	23306	13228.658424776024	0
0	23315	13231.529196457419	1
0	23316	13232.59221972155	0
0	23330	13254.118047946572	1
0	23331	13254.812403794529	0
0	23345	13262.77723908224	1
0	23346	13263.849792570483	0
0	23385	13306.300512408232	1
0	23386	13307.571591702816	0
0	23410	13342.523239234137	1
0	23411	13343.251432646259	0
0	23417	13344.721245554846	1
0	23419	13344.776640457394	2
0	23420	13344.789267803922	1
0	23424	13345.108048029752	2
0	23425	13346.694902922034	1
0	23428	13348.257218521841	0
0	23432	13349.260882639457	1
0	23433	13349.906098714665	0
0	23437	13350.095891384801	1
0	23438	13351.494019737475	0
0	23445	13353.565747488773	1
0	23447	13353.785405404261	2
0	23448	13355.165067447916	1
0	23451	13356.552034485907	0
0	23457	13356.935935010585	1
0	23458	13358.388426435374	0
0	23465	13360.200039487948	1
0	23466	13361.072161469616	0
0	23490	13375.133077976909	1
0	23491	13375.934056907795	0
0	23500	13379.390483289466	1
0	23501	13380.214717583511	0
0	23505	13380.923029238727	1
0	23506	13381.456083610434	0
0	23515	13383.66933568746	1
0	23516	13385.405550821299	0
0	23545	13394.714463196411	1
0	23546	13395.51734816357	0
0	23560	13398.221720668926	1
0	23561	13399.826536972443	0
0	23585	13423.493452668939	1
0	23588	13425.091482359197	0
0	23625	13471.169917733585	1
0	23626	13471.731801897144	0
0	23655	13484.330807241056	1
0	23657	13484.361732910357	2
0	23660	13484.727177122007	1
0	23664	13485.564544868579	2
0	23665	13486.610321383322	1
0	23668	13488.365228771003	0
0	23672	13489.49018259127	1
0	23674	13489.545060088723	2
0	23675	13490.161685347887	1
0	23678	13491.569901629495	0
0	23682	13491.634459878425	1
0	23683	13492.831654408904	0
0	23700	13501.590369405719	1
0	23701	13502.816023357559	0
0	23710	13505.946934337376	1
0	23713	13506.187595408328	0
0	23717	13507.398271060273	1
0	23718	13507.408301764086	0
0	23722	13507.729509146553	1
0	23723	13508.80314892038	0
0	23730	13510.624044147496	1
0	23732	13510.856353174455	2
0	23733	13511.441476398625	1
0	23738	13512.885472551838	0
0	23750	13517.340287248212	1
0	23752	13517.420270828711	2
0	23753	13517.991774748065	1
0	23758	13519.699942222596	0
0	23765	13522.198798612156	1
0	23767	13522.244586928417	2
0	23768	13523.110377596304	1
0	23771	13524.467434950903	0
0	23782	13526.882755393157	1
0	23783	13527.380297542348	0
0	23810	13542.602140010777	1
0	23811	13543.613444945163	0
0	23832	13549.941140976555	1
0	23833	13551.616943687216	0
0	23840	13553.004821285085	1
0	23842	13553.794520584357	2
0	23843	13554.711463051863	1
0	23846	13556.014594265461	0
0	23850	13557.53457515183	1
0	23851	13557.811473833039	0
0	23855	13557.944381374676	1
0	23856	13559.046400525622	0
0	23865	13562.152195366786	1
0	23866	13562.976403040965	0
0	23875	13565.437557715014	1
0	23877	13565.622087756111	2
0	23878	13566.843443032739	1
0	23881	13568.545945677919	0
0	23895	13573.669595668996	1
0	23896	13574.480880888707	0
0	23900	13575.609533063366	1
0	23902	13575.947378218924	2
0	23903	13576.044281106784	1
0	23907	13576.181458207597	2
0	23908	13577.488267763487	1
0	23911	13579.458141173392	0
0	23960	13609.457301022339	1
0	23962	13610.156042390545	2
0	23963	13610.684504719892	1
0	23966	13611.901539227621	0
0	24010	13642.656553118247	1
0	24012	13644.389720357359	2
0	24013	13644.417203347791	1
0	24017	13645.562394273972	2
0	24018	13645.895516678352	1
0	24021	13647.747357509878	0
0	24110	13720.54963288864	1
0	24111	13720.812240624572	0
0	24115	13721.211157838495	1
0	24117	13721.506680967839	2
0	24118	13722.247607209491	1
0	24121	13723.623337886626	0
0	24135	13732.073887078193	1
0	24137	13732.449499228213	2
0	24138	13733.377732915483	1
0	24141	13735.337740537017	0
0	24150	13738.661740755543	1
0	24151	13738.884010495083	0
0	24175	13748.701902599089	1
0	24176	13749.374425192899	0
0	24180	13750.049078691284	1
0	24181	13751.374326096824	0
0	24185	13752.442632077509	1
0	24188	13753.278676676354	0
0	24192	13754.537170556116	1
0	24193	13754.657052048645	0
0	24212	13763.753567816269	1
0	24213	13763.917162045377	0
0	24225	13768.752061999765	1
0	24226	13769.550762059586	0
0	24230	13770.163986171719	1
0	24232	13770.283278787202	2
0	24233	13770.846812305832	1
0	24236	13772.215691829147	0
0	24245	13775.982647165932	1
0	24247	13776.313726386188	2
0	24248	13777.24818273642	1
0	24252	13777.951546041721	2
0	24253	13779.119703979314	1
0	24256	13780.592152776652	0
0	24277	13789.710057477108	1
0	24278	13790.156842008631	0
0	24295	13797.093500583435	1
0	24296	13798.691353184825	0
0	24305	13801.825408567915	1
0	24306	13802.968531156154	0
0	24310	13804.10985398348	1
0	24311	13804.416380036445	0
0	24315	13805.124797595603	1
0	24318	13805.826536295199	0
0	24322	13805.957242355048	1
0	24323	13807.056346257412	0
0	24330	13809.126270817931	1
0	24332	13809.578379993542	2
0	24333	13810.693236821712	1
0	24338	13812.676975305387	0
0	24342	13813.968119920153	1
0	24343	13814.343193752886	0
0	24350	13816.109795023806	1
0	24351	13817.195050584161	0
0	24380	13850.395771187132	1
0	24383	13851.688920387376	0
0	24390	13854.22824875209	1
0	24391	13855.470183517721	0
0	24397	13856.494070759692	1
0	24398	13857.172528809991	0
0	24405	13859.313195017827	1
0	24407	13859.679982243338	2
0	24408	13860.241013626133	1
0	24411	13862.102968836327	0
0	24415	13862.641827817022	1
0	24416	13863.791512213399	0
0	24425	13866.989607713809	1
0	24426	13867.06050603812	0
0	24430	13867.325384462051	1
0	24431	13868.326228507547	0
0	24435	13869.344346737565	1
0	24436	13869.718092288574	0
0	24445	13873.14787168781	1
0	24447	13874.124215376275	2
0	24448	13874.73515484247	1
0	24451	13876.703975759145	0
0	24460	13881.145680309586	1
0	24461	13881.98021438091	0
0	24465	13882.65035058809	1
0	24466	13883.893436682289	0
0	24480	13888.061127575621	1
0	24481	13889.172909093838	0
0	24485	13889.403323824013	1
0	24486	13890.94351875801	0
0	24490	13891.385733588081	1
0	24491	13892.545141727481	0
0	24510	13913.549807060759	1
0	24511	13914.022688900417	0
0	24515	13914.242454019957	1
0	24517	13914.480335224107	2
0	24518	13915.725775223336	1
0	24521	13917.474418193585	0
0	24555	13937.64182064995	1
0	24556	13938.201293199759	0
0	24565	13942.071246248334	1
0	24566	13942.44767000303	0
0	24570	13943.000595552694	1
0	24571	13944.271595607515	0
0	24610	13978.495892760853	1
0	24611	13979.243885120485	0
0	24615	13979.475587103743	1
0	24618	13980.793123041201	0
0	24622	13981.527965216015	1
0	24625	13982.327045638967	0
0	24632	13984.187038383611	1
0	24633	13985.297054310064	0
0	24650	13994.450847446851	1
0	24651	13994.694758157206	0
0	24700	14012.703207310445	1
0	24702	14012.848599711003	2
0	24703	14012.973537333345	1
0	24709	14013.701377446492	2
0	24710	14014.760929214245	1
0	24714	14014.778932963318	2
0	24715	14016.6491177956	1
0	24718	14018.339569579659	0
0	24722	14018.939646157643	1
0	24723	14020.146738002485	0
0	24755	14043.679452276783	1
0	24756	14044.113441314	0
0	24770	14060.211435708991	1
0	24771	14060.810435718225	0
0	24787	14085.739814925028	1
0	24788	14085.740064886021	0
0	24795	14087.781795945925	1
0	24796	14088.604403406935	0
0	24815	14104.436915896374	1
0	24816	14104.736814133365	0
0	24830	14120.287771144261	1
0	24831	14121.292993284299	0
0	24860	14140.491599899451	1
0	24861	14141.718212447467	0
0	24870	14144.632816499381	1
0	24871	14145.995777859463	0
0	24875	14147.728077389027	1
0	24877	14147.870068899377	2
0	24878	14147.90882354725	1
0	24883	14149.867286484612	0
0	24887	14151.416871767342	1
0	24888	14151.78629674196	0
0	24892	14152.187053280518	1
0	24893	14152.997427250554	0
0	24915	14167.062188512384	1
0	24916	14167.535643194424	0
0	24955	14202.79715000335	1
0	24957	14203.845028224967	2
0	24958	14204.594169602665	1
0	24963	14205.989525384578	0
0	24995	14239.974608172899	1
0	24996	14241.403071071139	0
0	25005	14246.3341633833	1
0	25006	14247.452234100384	0
0	25015	14250.064081844504	1
0	25016	14251.36448801189	0
0	25025	14266.277247069566	1
0	25026	14267.090940649034	0
0	25030	14267.727945638984	1
0	25031	14268.363036945993	0
0	25045	14275.146732692664	1
0	25046	14276.99319348642	0
0	25060	14284.159758403556	1
0	25062	14284.549873966351	2
0	25063	14284.736563761426	1
0	25067	14285.810334803098	2
0	25068	14285.964997614814	1
0	25072	14286.058823709692	2
0	25073	14287.913782514153	1
0	25077	14289.002897884853	2
0	25078	14289.342385213157	1
0	25081	14291.01618546777	0
0	25085	14291.10359246003	1
0	25086	14292.680547633847	0
0	25090	14293.079965717183	1
0	25091	14294.450299834167	0
0	25095	14296.226241811109	1
0	25096	14296.312850499419	0
0	25100	14297.451704637114	1
0	25101	14297.954634385636	0
0	25115	14320.114813491905	1
0	25116	14320.799361249487	0
0	25130	14330.16941121048	1
0	25131	14330.295624863881	0
0	25150	14350.358792771408	1
0	25152	14350.728332880373	2
0	25154	14350.807321394805	3
0	25157	14352.229317258118	2
0	25161	14353.444320286748	3
0	25162	14353.99064424262	2
0	25167	14355.679860012239	1
0	25170	14356.995049545175	0
0	25174	14358.470567570463	1
0	25175	14358.570712397254	0
0	25179	14359.45640682193	1
0	25180	14360.079044267542	0
0	25187	14361.900673146774	1
0	25188	14363.56656288021	0
0	25200	14366.648688054879	1
0	25202	14367.367972439966	2
0	25203	14367.474107001356	1
0	25208	14369.302289739444	0
0	25215	14370.795352605602	1
0	25217	14371.142618785747	2
0	25218	14372.470693056664	1
0	25223	14374.1604036009	0
0	25230	14375.634161096035	1
0	25232	14375.660304829401	2
0	25233	14377.209899101599	1
0	25236	14378.756533926173	0
0	25255	14384.744830507425	1
0	25256	14386.314488323642	0
0	25260	14387.327168590636	1
0	25261	14387.713837633519	0
0	25275	14393.789714473241	1
0	25276	14394.385015139542	0
0	25280	14395.003723719097	1
0	25281	14396.265619025006	0
0	25290	14398.13193479745	1
0	25291	14399.250501644375	0
0	25295	14399.51362197273	1
0	25297	14400.240322518408	2
0	25298	14401.243135101671	1
0	25301	14402.947033462251	0
0	25310	14405.764378240707	1
0	25311	14406.281805537687	0
0	25315	14406.588448293647	1
0	25316	14408.239234559843	0
0	25335	14416.657661525279	1
0	25336	14417.261749025749	0
0	25350	14422.591467710461	1
0	25351	14423.996549645394	0
0	25370	14429.880563643604	1
0	25371	14430.845931236693	0
0	25395	14438.447194023942	1
0	25396	14440.038523621874	0
0	25405	14458.561834183811	1
0	25406	14459.123385683912	0
0	25410	14459.179681582181	1
0	25411	14460.526599034387	0
0	25470	14504.71470291858	1
0	25471	14504.715435023744	0
0	25475	14505.518931986384	1
0	25476	14506.000162864056	0
0	25510	14530.513669966131	1
0	25511	14531.131972486588	0
0	25515	14531.33980767704	1
0	25517	14532.558740235347	2
0	25518	14532.990976769539	1
0	25521	14534.413103200371	0
0	25535	14540.198327985518	1
0	25537	14540.67602272002	2
0	25539	14540.853746716559	3
0	25540	14541.43329804581	2
0	25544	14542.159847779717	3
0	25545	14543.210362280015	2
0	25548	14544.844950191345	1
0	25552	14545.154920485323	2
0	25553	14546.733814615238	1
0	25556	14548.677934376563	0
0	25560	14549.569773271394	1
0	25561	14549.911139198246	0
0	25565	14549.918124364822	1
0	25566	14551.537258517596	0
0	25570	14551.962909307717	1
0	25571	14552.919605299312	0
0	25580	14556.083531612919	1
0	25581	14557.018800829587	0
0	25585	14557.493262292534	1
0	25586	14558.95017269892	0
0	25610	14578.57712238019	1
0	25613	14579.756724110545	0
0	25620	14581.380298294106	1
0	25621	14583.254413130807	0
0	25635	14610.72844039543	1
0	25638	14611.821745464562	0
0	25644	14612.508363094922	1
0	25645	14613.026545290633	0
0	25649	14614.476816971802	1
0	25650	14614.925546416438	0
0	25654	14616.222818901661	1
0	25655	14616.560372469931	0
0	25662	14619.056412813957	1
0	25663	14620.42836353144	0
0	25670	14623.130247277811	1
0	25671	14623.449457370846	0
0	25690	14636.842986042992	1
0	25692	14637.895757561553	2
0	25693	14638.454844452689	1
0	25696	14639.959755883055	0
0	25700	14641.139312224364	1
0	25701	14641.204024488913	0
0	25705	14641.735523429838	1
0	25706	14642.53334884538	0
0	25725	14684.871910153904	1
0	25727	14685.539191589898	2
0	25728	14685.89597186582	1
0	25731	14687.139198566096	0
0	25745	14697.927240365469	1
0	25746	14698.133270616763	0
0	25755	14702.278432623365	1
0	25756	14702.660108924061	0
0	25760	14703.351752596718	1
0	25761	14704.192797543257	0
0	25770	14705.921829273228	1
0	25771	14707.446030578038	0
0	25785	14725.779024896276	1
0	25786	14727.225137678615	0
0	25815	14752.865091007198	1
0	25816	14753.034253945191	0
0	25825	14755.91739544847	1
0	25826	14756.947228970152	0
0	25835	14759.782696088061	1
0	25837	14760.765386441591	2
0	25838	14760.801873104475	1
0	25841	14762.762202082961	0
0	25845	14763.18283800664	1
0	25847	14763.456004387095	2
0	25848	14764.596885386682	1
0	25851	14765.816093423418	0
0	25885	14808.810149566824	1
0	25886	14809.815523928517	0
0	25920	14848.651072424521	1
0	25921	14849.945050437748	0
0	25925	14850.505549333462	1
0	25926	14851.7042107407	0
0	25930	14851.74936560355	1
0	25931	14853.209299978613	0
0	25935	14853.477306546055	1
0	25936	14854.713774028978	0
0	25940	14855.106998404149	1
0	25941	14856.670835110916	0
0	25945	14857.973560975331	1
0	25946	14858.367668248711	0
0	25950	14858.51927737325	1
0	25951	14860.18551509585	0
0	25960	14863.001258238563	1
0	25961	14864.465963425842	0
0	25965	14865.549494458275	1
0	25966	14866.372052908485	0
0	25970	14866.46344593333	1
0	25971	14868.286190729012	0
0	25975	14868.554052821517	1
0	25976	14869.51210366076	0
0	25980	14870.367365627898	1
0	25981	14871.09615118893	0
0	25985	14871.427919600885	1
0	25986	14872.927390183677	0
0	26005	14902.279347121917	1
0	26006	14903.106049523785	0
0	26010	14904.033282582698	1
0	26011	14905.059029633462	0
0	26015	14905.307746568204	1
0	26016	14906.922151841692	0
0	26020	14907.151198545791	1
0	26025	14908.618126177698	0
0	26029	14908.993467812701	1
0	26030	14909.853001720741	0
0	26034	14910.726749691474	1
0	26036	14911.119599922824	2
0	26037	14911.514611224554	1
0	26041	14912.498930966749	2
0	26042	14913.329914230018	1
0	26045	14914.74523857022	0
0	26049	14915.460020022278	1
0	26050	14916.524284724987	0
0	26057	14918.492181434756	1
0	26058	14919.714672855197	0
0	26160	15023.317038755191	1
0	26162	15024.240139180018	2
0	26163	15024.55334825805	1
0	26167	15025.485942970785	2
0	26168	15026.297453825274	1
0	26171	15027.867950512567	0
0	26175	15028.534961930607	1
0	26176	15029.384744576277	0
0	26180	15029.479269237177	1
0	26181	15031.122261300968	0
0	26195	15041.079417829373	1
0	26196	15041.733335017223	0
0	26235	15088.203807013343	1
0	26236	15089.764639688042	0
0	26245	15093.237900137176	1
0	26246	15094.651192402015	0
0	26250	15095.420819148293	1
0	26251	15096.079202940794	0
0	26275	15108.410353184983	1
0	26276	15110.002337474994	0
0	26280	15110.552956464177	1
0	26281	15111.537421431265	0
0	26285	15112.237021621755	1
0	26286	15112.761729219987	0
0	26290	15112.828313472976	1
0	26291	15114.758149292379	0
0	26315	15135.573210338864	1
0	26317	15137.242933797707	2
0	26318	15137.375231884269	1
0	26321	15138.71291269291	0
0	26325	15138.989552275223	1
0	26326	15140.628093139676	0
0	26330	15140.76517807973	1
0	26331	15142.513997453486	0
0	26340	15162.080742750348	1
0	26341	15163.134464141426	0
0	26360	15168.515809628734	1
0	26361	15170.1666487784	0
0	26375	15180.384492433948	1
0	26376	15181.605120834233	0
0	26380	15182.370370362859	1
0	26381	15183.600218520397	0
0	26405	15198.662380548664	1
0	26406	15198.693166024909	0
0	26412	15200.06064464306	1
0	26413	15200.553593736627	0
0	26425	15214.647103401662	1
0	26428	15215.814287111944	0
0	26432	15216.639249542022	1
0	26433	15217.694312257355	0
0	26490	15268.462817066627	1
0	26491	15269.734675497995	0
0	26545	15346.469346135892	1
0	26546	15347.434748118471	0
0	26565	15354.495156293207	1
0	26568	15355.909830309892	0
0	26575	15358.219011108375	1
0	26576	15359.030440593207	0
0	26585	15361.417431283309	1
0	26586	15362.172055819141	0
0	26605	15370.341308356967	1
0	26606	15371.2287885104	0
0	26620	15402.434719547859	1
0	26621	15403.585869742043	0
0	26625	15404.607473682002	1
0	26626	15404.99478743416	0
0	26630	15405.899631841878	1
0	26633	15406.212351893678	0
0	26637	15407.904758994227	1
0	26638	15408.083492621079	0
0	26642	15408.878356136956	1
0	26643	15410.056310524464	0
0	26647	15410.535836423004	1
0	26648	15411.35735343457	0
0	26652	15411.550570990391	1
0	26654	15411.738910298749	2
0	26655	15413.346145517424	1
0	26659	15414.792265953512	2
0	26660	15414.935066921495	1
0	26663	15416.324077823058	0
0	26667	15416.650874008488	1
0	26669	15416.657375311386	2
0	26671	15418.217291077412	3
0	26672	15418.268211172007	2
0	26676	15418.724429879945	3
0	26677	15419.62124176123	2
0	26681	15420.051998754931	3
0	26683	15420.86843880374	4
0	26684	15421.009738292776	3
0	26687	15422.749461117245	2
0	26691	15423.71585134892	3
0	26692	15424.433081651523	2
0	26696	15424.486110793784	3
0	26697	15426.378899321377	2
0	26700	15427.87684583389	1
0	26703	15429.106958043806	0
0	26720	15434.603054840268	1
0	26722	15434.736424514691	2
0	26724	15434.866025898764	3
0	26726	15435.736237806499	4
0	26727	15436.193611522526	3
0	26731	15437.872612112893	4
0	26732	15438.047849002056	3
0	26735	15440.043747890316	2
0	26738	15441.633693706006	1
0	26741	15443.396136049688	0
0	26745	15443.722183996803	1
0	26746	15444.983508012206	0
0	26760	15450.062575494777	1
0	26762	15451.117135247498	2
0	26763	15451.158432936359	1
0	26767	15451.592317772956	2
0	26768	15452.583302590687	1
0	26772	15453.511625558691	2
0	26773	15454.300415410537	1
0	26776	15455.654783871088	0
0	26780	15455.723187415728	1
0	26782	15456.600388499881	2
0	26783	15457.640270558994	1
0	26786	15459.233028476376	0
0	26790	15460.166716972608	1
0	26791	15460.791843447339	0
0	26795	15461.041819403237	1
0	26796	15462.554919019964	0
0	26805	15466.821497163824	1
0	26806	15467.18250204911	0
0	26810	15468.111480612065	1
0	26811	15468.496289445548	0
0	26820	15470.713452292083	1
0	26822	15471.791067737682	2
0	26823	15472.094363700674	1
0	26827	15472.734354702046	2
0	26828	15473.73977123432	1
0	26831	15475.177718936728	0
0	26835	15476.048444116963	1
0	26836	15477.091872507969	0
0	26855	15489.85925074808	1
0	26856	15490.839944172355	0
0	26895	15509.934558200977	1
0	26896	15511.387738863059	0
0	26900	15511.59482842762	1
0	26901	15513.151043729537	0
0	26905	15513.291357730489	1
0	26906	15514.888140979835	0
0	26915	15516.468564007596	1
0	26916	15517.901103479432	0
0	26920	15519.380408285091	1
0	26921	15519.435772863234	0
0	26930	15520.836149227671	1
0	26932	15521.045289435273	2
0	26934	15521.177671950867	3
0	26935	15522.818945203475	2
0	26939	15524.611234039432	3
0	26940	15524.790798715256	2
0	26943	15526.263436107091	1
0	26947	15526.428718417009	2
0	26948	15527.9388858748	1
0	26953	15529.868503268748	0
0	26957	15530.285152029715	1
0	26958	15531.388492676556	0
0	26980	15546.576817218823	1
0	26981	15547.189414204112	0
0	26995	15552.707339870134	1
0	26996	15553.766588265784	0
0	27050	15624.014746830706	1
0	27051	15624.927604196294	0
0	27080	15660.630347640498	1
0	27081	15662.317511312003	0
0	27085	15663.707358203406	1
0	27086	15663.999064938622	0
0	27090	15664.133961416442	1
0	27091	15665.440633303756	0
0	27105	15672.923773474169	1
0	27106	15673.439386903421	0
0	27125	15682.289529809685	1
0	27126	15682.567519898203	0
0	27135	15684.806335329874	1
0	27136	15685.055880355139	0
0	27160	15703.881589357256	1
0	27163	15705.414220302865	0
0	27185	15718.715594983104	1
0	27187	15719.300598414504	2
0	27188	15720.083646701057	1
0	27192	15721.950134048116	2
0	27193	15721.997209004652	1
0	27196	15723.714270901274	0
0	27200	15724.540077389489	1
0	27201	15725.526967204142	0
0	27205	15725.72886548995	1
0	27206	15727.207992369461	0
0	27210	15728.144761632101	1
0	27211	15728.715121340531	0
0	27250	15757.69074714098	1
0	27251	15758.27643236292	0
0	27260	15760.488293980529	1
0	27262	15761.192102228688	2
0	27263	15761.423274746017	1
0	27266	15763.156006477439	0
0	27270	15764.245971848608	1
0	27272	15764.508189744908	2
0	27273	15764.962457298712	1
0	27277	15765.114045466914	2
0	27278	15766.313593648971	1
0	27284	15766.783770693801	2
0	27285	15767.949130182193	1
0	27289	15768.662961592229	2
0	27290	15769.15545107037	1
0	27294	15770.12652422824	2
0	27295	15770.646714678073	1
0	27299	15770.838549951869	2
0	27300	15772.517950385475	1
0	27304	15773.69126149761	2
0	27305	15773.774194137977	1
0	27309	15774.483822439439	2
0	27310	15775.211437196882	1
0	27313	15776.743677504772	0
0	27317	15777.204469870226	1
0	27318	15778.307253123672	0
0	27327	15780.912052732359	1
0	27328	15781.76213009026	0
0	27355	15796.678282271065	1
0	27356	15796.91553023009	0
0	27365	15798.691400564363	1
0	27366	15800.301783706419	0
0	27370	15801.660368755562	1
0	27371	15801.833485823668	0
0	27375	15803.0522949798	1
0	27376	15803.41697408574	0
0	27380	15804.152937224799	1
0	27382	15804.466464760261	2
0	27384	15805.187477875062	3
0	27385	15805.191146081298	2
0	27388	15806.434727455846	1
0	27391	15808.151217178612	0
0	27400	15810.427231020887	1
0	27402	15811.179406216294	2
0	27404	15812.016470259326	3
0	27405	15812.135888618498	2
0	27408	15813.768829584948	1
0	27412	15813.841847610142	2
0	27413	15815.523718845553	1
0	27417	15815.735774903495	2
0	27420	15817.309108590602	1
0	27424	15818.287767737645	2
0	27425	15819.164281880378	1
0	27429	15820.789906154694	2
0	27430	15821.049589396908	1
0	27434	15822.166367145804	2
0	27435	15822.500122286833	1
0	27438	15823.826941924996	0
0	27442	15824.905568574528	1
0	27443	15825.148649315804	0
0	27450	15826.877056899459	1
0	27451	15828.165851744346	0
0	27457	15829.160891598084	1
0	27459	15829.389045950965	2
0	27460	15829.678572741419	1
0	27463	15830.909639601491	0
0	27467	15831.13695652456	1
0	27468	15832.696217069298	0
0	27475	15834.27969460414	1
0	27477	15835.270623372296	2
0	27478	15835.752507937037	1
0	27483	15837.027501004085	0
0	27495	15840.997913247537	1
0	27496	15842.368093004424	0
0	27505	15846.082129550811	1
0	27506	15846.267942916894	0
0	27540	15877.771607659343	1
0	27542	15877.944945754281	2
0	27543	15878.027740851021	1
0	27547	15878.893381390024	2
0	27548	15879.36849503105	1
0	27551	15880.978266386664	0
0	27580	15900.331199406666	1
0	27581	15900.732145756116	0
0	27590	15903.761008216716	1
0	27591	15904.420764906385	0
0	27595	15905.696388213902	1
0	27596	15906.227556257748	0
0	27610	15920.919421943755	1
0	27611	15921.225700727881	0
0	27635	15937.413279382362	1
0	27636	15938.709206345922	0
0	27640	15938.778768871108	1
0	27642	15939.46170843129	2
0	27643	15940.441282460524	1
0	27648	15942.138228299899	0
0	27652	15942.938532632108	1
0	27653	15943.796737983694	0
0	27660	15946.586415386641	1
0	27661	15947.453695662004	0
0	27675	15954.737654684459	1
0	27676	15955.192581867285	0
0	27690	15960.473552662404	1
0	27691	15961.627020728699	0
0	27700	15963.800291367416	1
0	27701	15964.487018370925	0
0	27710	15968.231556207849	1
0	27713	15969.746272519318	0
0	27720	15971.004857211386	1
0	27721	15972.795058818807	0
0	27725	15973.821144667994	1
0	27726	15974.170734757644	0
0	27730	15974.916870281976	1
0	27731	15975.375324272451	0
0	27745	15980.337834425721	1
0	27746	15981.9424591749	0
0	27755	15992.84090911517	1
0	27756	15994.243437184628	0
0	27775	16015.742080597459	1
0	27776	16016.412961644249	0
0	27805	16081.52680939602	1
0	27806	16082.292342387087	0
0	27810	16083.123813832748	1
0	27811	16084.010496463388	0
0	27842	16094.354084698321	1
0	27844	16094.501073192897	2
0	27845	16095.174945199494	1
0	27848	16097.034121111599	0
0	27852	16097.213207219041	1
0	27853	16098.623085623426	0
0	27860	16101.369202101231	1
0	27861	16102.425196872098	0
0	27895	16122.996553693956	1
0	27897	16123.611945632086	2
0	27900	16124.087294083683	1
0	27905	16125.690680635756	0
0	27909	16127.10169349107	1
0	27910	16127.438231573662	0
0	27914	16127.867788852758	1
0	27915	16128.854957410356	0
0	27919	16129.7740142531	1
0	27920	16130.613764442166	0
0	27924	16130.652598358314	1
0	27925	16132.104111214203	0
0	27935	16136.192911634077	1
0	27936	16136.876042538544	0
0	27945	16138.737715686757	1
0	27947	16139.330116196893	2
0	27948	16140.145567005908	1
0	27951	16141.774203258229	0
0	27980	16157.679142476485	1
0	27981	16158.788404071969	0
0	28020	16192.179060359685	1
0	28021	16193.395978505829	0
0	28035	16200.274483425775	1
0	28036	16200.579000901281	0
0	28045	16205.524560742691	1
0	28046	16205.839188428279	0
0	28075	16230.173563318763	1
0	28078	16230.842367654677	0
0	28082	16231.746844059775	1
0	28083	16232.372095450583	0
0	28087	16233.181384887687	1
0	28088	16233.880264373134	0
0	28094	16235.516036597476	1
0	28095	16235.738891463923	0
0	28102	16237.370387851391	1
0	28103	16238.603054379868	0
0	28109	16239.869930242809	1
0	28110	16240.296766929711	0
0	28114	16241.079656630569	1
0	28115	16241.845130047398	0
0	28132	16247.247891868083	1
0	28133	16247.273642761022	0
0	28145	16251.940115349439	1
0	28146	16252.77348615335	0
0	28150	16253.325220504658	1
0	28151	16254.29948527509	0
0	28165	16259.429601020084	1
0	28166	16260.385901192283	0
0	28195	16287.224924403434	1
0	28196	16287.61527522295	0
0	28200	16288.189373484943	1
0	28201	16289.260555976957	0
0	28205	16289.798698040678	1
0	28206	16290.658928714275	0
0	28227	16322.165774243407	1
0	28228	16323.394849457575	0
0	28255	16339.395331776234	1
0	28256	16340.307351425918	0
0	28285	16357.625551489045	1
0	28288	16358.621926589977	0
0	28295	16361.469614328755	1
0	28296	16362.224141631011	0
0	28305	16364.266645246716	1
0	28307	16365.252909402577	2
0	28308	16365.787017801641	1
0	28312	16365.9314143329	2
0	28314	16367.292598188074	3
0	28315	16367.369197288393	2
0	28319	16368.173474407211	3
0	28320	16368.838203729182	2
0	28323	16370.427557036891	1
0	28327	16370.993343787584	2
0	28328	16372.071947895415	1
0	28331	16373.309258033201	0
0	28335	16374.568650716959	1
0	28336	16375.149638894066	0
0	28345	16377.006852119881	1
0	28346	16378.44949427995	0
0	28355	16391.013527305046	1
0	28358	16392.202167912661	0
0	28362	16392.294346511093	1
0	28363	16393.859380376241	0
0	28372	16395.976197188453	1
0	28373	16396.556344657107	0
0	28400	16409.671782961015	1
0	28401	16410.262283765822	0
0	28410	16412.893342043787	1
0	28412	16413.375024917816	2
0	28413	16414.278784643225	1
0	28417	16414.673316428913	2
0	28420	16416.17370237384	1
0	28423	16417.583220341541	0
0	28427	16417.644593403605	1
0	28429	16418.49888381035	2
0	28430	16418.93452790875	1
0	28433	16420.23868498236	0
0	28437	16421.227119271723	1
0	28438	16421.839480510653	0
0	28460	16452.858884529529	1
0	28462	16452.987023683427	2
0	28463	16453.890265329141	1
0	28467	16455.027941321192	2
0	28468	16455.112131894525	1
0	28472	16455.710804098261	2
0	28473	16456.96624623533	1
0	28476	16458.729291662906	0
0	28480	16458.73065060182	1
0	28481	16460.238706143346	0
0	28485	16460.637636379695	1
0	28486	16461.542705783207	0
0	28495	16465.295839427948	1
0	28496	16466.121436196467	0
0	28500	16466.77736369454	1
0	28501	16467.390282869799	0
0	28535	16486.95547618566	1
0	28536	16487.318380122585	0
0	28560	16502.986747747273	1
0	28561	16503.164410844557	0
0	28565	16504.44190819226	1
0	28566	16504.708777339496	0
0	28570	16505.779041068709	1
0	28572	16505.90063800875	2
0	28573	16506.050924388431	1
0	28577	16507.432840277839	2
0	28578	16507.853352548294	1
0	28582	16509.105657230774	2
0	28583	16509.299939303585	1
0	28587	16509.958265650264	2
0	28588	16510.75114486713	1
0	28591	16512.474470035471	0
0	28595	16512.906447077871	1
0	28598	16514.348787973002	0
0	28615	16520.402832722529	1
0	28616	16520.716309451237	0
0	28675	16592.515506367898	1
0	28676	16592.964628062506	0
0	28690	16602.695909647907	1
0	28691	16603.601295640345	0
0	28715	16641.982321522067	1
0	28716	16642.659846910261	0
0	28750	16660.307416804336	1
0	28751	16660.657249774735	0
0	28757	16662.554094603509	1
0	28759	16662.567821881314	2
0	28760	16662.586474901016	1
0	28763	16664.235585998881	0
0	28770	16667.083754333248	1
0	28771	16667.117772800799	0
0	28777	16667.483272185323	1
0	28779	16668.393943646961	2
0	28780	16669.101111005384	1
0	28783	16670.582045328568	0
0	28787	16671.264347887404	1
0	28789	16671.288517049786	2
0	28791	16671.857873725015	3
0	28792	16671.99256589147	2
0	28795	16673.51779987267	1
0	28798	16674.721699725415	0
0	28805	16677.09952139021	1
0	28806	16677.396788343179	0
0	28810	16679.197190718537	1
0	28811	16679.385003461453	0
0	28820	16681.838263463802	1
0	28822	16682.677009288566	2
0	28824	16683.006676069217	3
0	28825	16683.407671497355	2
0	28829	16685.174271547968	3
0	28830	16685.212559386867	2
0	28834	16685.494892216079	3
0	28836	16686.677486670063	4
0	28837	16687.181989985856	3
0	28841	16688.031097697459	4
0	28842	16688.721984885412	3
0	28846	16688.818846311219	4
0	28847	16690.166737650114	3
0	28850	16691.791406084376	2
0	28854	16691.968887745662	3
0	28855	16693.132819026487	2
0	28858	16694.373857708054	1
0	28862	16695.319375477913	2
0	28863	16695.815743430669	1
0	28866	16697.6406101409	0
0	28895	16710.429790694907	1
0	28896	16711.142629683712	0
0	28905	16714.348424928094	1
0	28906	16714.566287824637	0
0	28925	16721.716317927369	1
0	28926	16722.148661160943	0
0	28980	16760.886668491481	1
0	28981	16761.778244376306	0
0	28990	16764.232191857263	1
0	28991	16765.308556428972	0
0	29012	16780.975124431444	1
0	29013	16782.216570942737	0
0	29055	16801.260989066036	1
0	29056	16801.321161379182	0
0	29065	16803.711668269491	1
0	29066	16804.411139684478	0
0	29075	16808.946959539577	1
0	29078	16809.605402757915	0
0	29082	16810.772226865643	1
0	29083	16810.831739947329	0
0	29087	16811.029024436202	1
0	29088	16812.53102816766	0
0	29092	16812.928074672574	1
0	29094	16814.321784435344	2
0	29095	16814.513981653693	1
0	29098	16816.058841393272	0
0	29102	16816.321003673999	1
0	29103	16817.98756297225	0
0	29107	16819.44411208227	1
0	29108	16819.934340682382	0
0	29112	16820.247239221832	1
0	29113	16821.167713920715	0
0	29117	16821.787989518746	1
0	29118	16823.058808833862	0
0	29122	16823.084371501031	1
0	29127	16824.682530048246	0
0	29175	16855.178343667388	1
0	29176	16856.217463118352	0
0	29195	16866.175008223463	1
0	29196	16867.660999190115	0
0	29230	16903.098755091277	1
0	29231	16904.555557519908	0
0	29235	16904.789520923751	1
0	29236	16906.087592692825	0
0	29240	16906.220638755371	1
0	29242	16906.253073688086	2
0	29245	16908.065172437544	1
0	29249	16908.907233991578	2
0	29250	16910.051179032925	1
0	29253	16912.037708724256	0
0	29257	16913.012201675171	1
0	29258	16913.855679981563	0
0	29262	16915.432957038097	1
0	29263	16915.838586406935	0
0	29270	16917.592091053673	1
0	29272	16918.624383114305	2
0	29273	16918.658888572607	1
0	29277	16919.231386482534	2
0	29278	16919.863870857995	1
0	29281	16921.468460643444	0
0	29295	16932.251865725821	1
0	29296	16932.696022818309	0
0	29325	16945.415175313765	1
0	29326	16946.410028025962	0
0	29370	16985.744144511695	1
0	29371	16986.494782400448	0
0	29375	16986.551164924737	1
0	29378	16987.989664575588	0
0	29385	16990.016534832986	1
0	29386	16990.872577484455	0
0	29390	16992.220176002613	1
0	29391	16992.398026201446	0
0	29395	16992.575131246143	1
0	29398	16993.896011077743	0
0	29402	16995.072221875131	1
0	29404	16995.2121654258	2
0	29405	16995.619935605619	1
0	29408	16996.963642106708	0
0	29455	17048.1170695079	1
0	29456	17049.585120047065	0
0	29460	17049.607493913282	1
0	29461	17051.015970683093	0
0	29470	17053.776388345112	1
0	29472	17053.845168251232	2
0	29473	17055.333511051842	1
0	29476	17057.23827888959	0
0	29480	17057.514896730607	1
0	29482	17057.691326193271	2
0	29483	17058.584682757714	1
0	29486	17060.130329811321	0
0	29490	17060.986473866705	1
0	29492	17061.315529341811	2
0	29493	17061.500628607096	1
0	29496	17062.914574314775	0
0	29500	17063.727761914181	1
0	29501	17064.28851246194	0
0	29520	17083.036801930777	1
0	29521	17084.458796991577	0
0	29535	17091.36323593954	1
0	29536	17091.394381087484	0
0	29540	17092.228000323574	1
0	29541	17093.301922363626	0
0	29565	17106.88711510083	1
0	29566	17107.143860598252	0
0	29570	17107.551402078848	1
0	29571	17108.449016145215	0
0	29575	17108.514906125024	1
0	29577	17109.187619259201	2
0	29578	17110.070992715628	1
0	29581	17111.398162968055	0
0	29620	17137.017454501255	1
0	29621	17138.31195279875	0
0	29625	17138.32713078996	1
0	29627	17139.730752758209	2
0	29628	17140.267847335648	1
0	29631	17141.998710547138	0
0	29645	17147.922571928309	1
0	29646	17148.654071865944	0
0	29660	17153.303590147241	1
0	29661	17154.168745219436	0
0	29665	17154.37650032544	1
0	29666	17155.659442434933	0
0	29670	17156.379188797261	1
0	29671	17157.163929152217	0
0	29680	17160.419642369432	1
0	29682	17160.648835497822	2
0	29683	17161.391314028856	1
0	29686	17162.774706553948	0
0	29720	17183.589741304705	1
0	29721	17185.318799100032	0
0	29765	17209.472042060422	1
0	29768	17210.325381554191	0
0	29775	17212.140757305004	1
0	29779	17212.736670975294	2
0	29780	17213.700175685895	1
0	29783	17215.015868090366	0
0	29805	17223.008424453048	1
0	29806	17224.623769798161	0
0	29810	17225.217034487932	1
0	29811	17226.029793906988	0
0	29840	17237.30101337427	1
0	29841	17238.478183215169	0
0	29850	17242.465530474811	1
0	29852	17242.480198293917	2
0	29853	17243.942217520811	1
0	29857	17244.323775345981	2
0	29858	17245.778241718188	1
0	29861	17247.677920992673	0
0	29865	17247.829391429518	1
0	29866	17249.540963354335	0
0	29875	17253.122188746283	1
0	29876	17253.544955603717	0
0	29900	17267.065718885965	1
0	29901	17267.762340447824	0
0	29910	17272.0376649355	1
0	29911	17272.806416598996	0
0	29975	17323.067531305967	1
0	29976	17323.616572236673	0
0	29980	17324.443849044051	1
0	29981	17325.063755514131	0
0	30000	17336.829096207913	1
0	30001	17337.737322850139	0
0	30005	17338.499164980385	1
0	30006	17339.057701087543	0
0	30015	17347.457233895914	1
0	30018	17348.06740709255	0
0	30022	17348.538346038699	1
0	30024	17348.659194552208	2
0	30025	17349.824707601317	1
0	30029	17350.034896589437	2
0	30030	17351.824686516546	1
0	30034	17351.914230711464	2
0	30035	17353.34574911809	1
0	30039	17353.635299481133	2
0	30040	17354.688835031264	1
0	30044	17354.972002198274	2
0	30046	17355.068154434717	3
0	30047	17356.029994828724	2
0	30051	17356.272435348633	3
0	30052	17357.309596997411	2
0	30056	17357.945719686138	3
0	30057	17359.166847689175	2
0	30061	17360.189291657092	3
0	30063	17360.583615543342	4
0	30064	17360.678119695098	3
0	30067	17362.44168923358	2
0	30071	17363.214043298068	3
0	30072	17363.966362641105	2
0	30075	17365.233920971589	1
0	30079	17365.837194608983	2
0	30080	17366.577130565518	1
0	30084	17367.831402652987	2
0	30085	17368.190630694391	1
0	30088	17369.956444366375	0
0	30092	17370.041374340174	1
0	30094	17370.09379135522	2
0	30096	17370.870425536061	3
0	30097	17371.64841790414	2
0	30101	17371.777300263267	3
0	30102	17373.622764246637	2
0	30105	17375.37902172553	1
0	30108	17377.073121383699	0
0	30112	17377.269692275278	1
0	30114	17377.567104845845	2
0	30115	17378.343104520353	1
0	30119	17379.247182117985	2
0	30120	17379.58849041565	1
0	30124	17379.978056833613	2
0	30126	17380.135088303805	3
0	30127	17380.81616256694	2
0	30130	17382.333132004278	1
0	30134	17383.618408295695	2
0	30135	17383.866282728786	1
0	30139	17385.286356067767	2
0	30140	17385.444416121679	1
0	30143	17386.794346889208	0
0	30147	17387.03433907462	1
0	30148	17388.049095014396	0
0	30152	17388.569029913839	1
0	30153	17389.695661481756	0
0	30160	17391.720088660678	1
0	30161	17392.599199612538	0
0	30170	17396.86335359721	1
0	30171	17397.143331224509	0
0	30200	17431.386197371041	1
0	30201	17431.609528851315	0
0	30205	17431.879012132845	1
0	30206	17433.158494636222	0
0	30215	17467.342886278196	1
0	30216	17467.748237884792	0
0	30225	17470.524463859239	1
0	30227	17471.221670379026	2
0	30228	17471.337027020755	1
0	30231	17472.566335707905	0
0	30250	17486.044384636733	1
0	30251	17486.979765845439	0
0	30270	17493.583202298408	1
0	30271	17494.77475758141	0
0	30285	17503.654191973231	1
0	30286	17504.728897424926	0
0	30300	17519.828202577254	1
0	30301	17520.25594756109	0
0	30332	17531.587570700281	1
0	30333	17531.938603012093	0
0	30337	17532.388833085152	1
0	30338	17533.408588396587	0
0	30405	17605.140408409316	1
0	30406	17605.515313094488	0
0	30455	17656.505737628444	1
0	30456	17657.122340591141	0
0	30465	17660.471841160627	1
0	30466	17660.70716671516	0
0	30470	17661.721283854138	1
0	30471	17662.678831781082	0
0	30485	17669.397088038515	1
0	30486	17670.213754532875	0
0	30490	17670.658116556838	1
0	30491	17671.79060666153	0
0	30495	17672.163544202444	1
0	30496	17673.288238048384	0
0	30580	17728.836326126655	1
0	30582	17729.482013154652	2
0	30583	17729.746059434584	1
0	30588	17731.407298236436	0
0	30625	17744.341745403727	1
0	30626	17746.102991368877	0
0	30685	17812.50025412753	1
0	30686	17812.67279900429	0
0	30745	17861.110705606462	1
0	30747	17861.154513421467	2
0	30748	17861.76294967049	1
0	30751	17863.444628684234	0
0	30775	17881.57598935685	1
0	30776	17882.537096239867	0
0	30787	17884.309090714783	1
0	30788	17885.668817772957	0
0	30840	17921.42962463443	1
0	30841	17922.493842554778	0
0	30845	17923.09199482638	1
0	30847	17923.304483231561	2
0	30848	17924.05537796294	1
0	30851	17925.264614753366	0
0	30860	17927.89064966344	1
0	30861	17929.067855346832	0
0	30870	17931.020967515573	1
0	30871	17931.791422954411	0
0	30892	17958.535657140829	1
0	30894	17958.873308132282	2
0	30895	17959.641229147308	1
0	30899	17960.234805279343	2
0	30901	17960.498120660639	3
0	30902	17961.189697516181	2
0	30905	17962.812646828622	1
0	30910	17964.070464372479	0
0	30945	17976.882116834737	1
0	30946	17977.536307922747	0
0	30950	17977.572251829423	1
0	30952	17977.669743787875	2
0	30955	17979.255259233896	1
0	30958	17981.219036891494	0
0	30962	17982.359530373541	1
0	30963	17982.513249628056	0
0	30967	17982.72234631972	1
0	30969	17982.892870365528	2
0	30970	17984.110995979604	1
0	30973	17985.665353376974	0
0	30977	17985.837262551203	1
0	30978	17987.064776677821	0
0	30985	17989.654488771985	1
0	30987	17989.844675205406	2
0	30988	17990.063789715428	1
0	30992	17990.222917074462	2
0	30994	17991.384563627894	3
0	30995	17991.427336239811	2
0	30998	17993.21999394558	1
0	31001	17994.58317347597	0
0	31007	17996.195324785995	1
0	31009	17996.472224001526	2
0	31010	17996.538071789962	1
0	31013	17997.834325400923	0
0	31017	17998.418870981099	1
0	31018	17999.186861230802	0
0	31025	18001.555209246137	1
0	31026	18002.921539390084	0
0	31035	18006.927538689806	1
0	31036	18007.027231741212	0
0	31040	18008.691044974111	1
0	31041	18008.729157408774	0
0	31050	18012.418232091898	1
0	31052	18012.856609447528	2
0	31054	18013.689675690919	3
0	31055	18013.756568635197	2
0	31058	18015.364065455215	1
0	31061	18017.307363118546	0
0	31065	18017.799986209266	1
0	31066	18018.955541598366	0
0	31070	18019.158179301874	1
0	31071	18020.565359672473	0
0	31080	18024.494186118234	1
0	31081	18024.774802710582	0
0	31115	18043.595305624727	1
0	31116	18044.347246732321	0
0	31140	18054.738726224714	1
0	31141	18054.973117105408	0
0	31160	18066.00821954083	1
0	31161	18066.555489384385	0
0	31185	18086.939229854806	1
0	31186	18087.19841474953	0
0	31205	18101.776395184055	1
0	31206	18103.0260537964	0
0	31210	18103.061331479685	1
0	31211	18104.395491277304	0
0	31230	18115.936709996657	1
0	31231	18116.172046986906	0
0	31235	18116.768274257177	1
0	31236	18118.086003048098	0
0	31265	18131.099477378264	1
0	31267	18131.377865762974	2
0	31268	18131.785254202413	1
0	31271	18133.706768639574	0
0	31300	18152.553441097095	1
0	31301	18154.048322597824	0
0	31305	18154.370312121676	1
0	31306	18155.684821997702	0
0	31310	18155.84046369401	1
0	31311	18157.429840757072	0
0	31315	18158.204563990045	1
0	31316	18158.936413549565	0
0	31325	18163.982908216919	1
0	31327	18163.983718371957	2
0	31328	18164.378542774105	1
0	31332	18164.928410279342	2
0	31333	18166.248259072871	1
0	31336	18167.666301543758	0
0	31340	18168.236276837081	1
0	31341	18169.502948901736	0
0	31345	18170.306738627746	1
0	31346	18170.754729939558	0
0	31350	18171.28079852507	1
0	31351	18172.276435606674	0
0	31355	18173.620752390074	1
0	31357	18173.680608069012	2
0	31358	18173.93307217595	1
0	31362	18175.183911575151	2
0	31363	18175.371008336105	1
0	31367	18175.419610262333	2
0	31368	18176.714328838446	1
0	31372	18178.266166070134	2
0	31373	18178.435447530382	1
0	31377	18179.151397780077	2
0	31378	18180.159832480483	1
0	31381	18182.081512527287	0
0	31385	18183.027727688056	1
0	31386	18183.674645430528	0
0	31390	18184.240167970972	1
0	31392	18184.468497397302	2
0	31393	18185.175573447653	1
0	31397	18186.284081153667	2
0	31398	18186.828167585031	1
0	31401	18188.192096155816	0
0	31410	18190.644141785179	1
0	31411	18191.140313853417	0
0	31420	18194.092707211382	1
0	31422	18194.731397549294	2
0	31423	18196.028298557364	1
0	31426	18197.317676624656	0
0	31430	18198.633932700995	1
0	31431	18198.860000291094	0
0	31450	18213.656329096637	1
0	31451	18214.48724408283	0
0	31455	18214.556787630453	1
0	31456	18216.043321455858	0
0	31487	18228.272666275423	1
0	31488	18229.067183528401	0
0	31492	18229.535255722081	1
0	31493	18230.763156794131	0
0	31540	18255.737298738119	1
0	31541	18256.713535645427	0
0	31545	18256.901244789188	1
0	31546	18258.537061112942	0
0	31575	18277.531305847844	1
0	31576	18278.695496050969	0
0	31605	18306.436185754204	1
0	31606	18307.510879752317	0
0	31610	18308.091674112758	1
0	31612	18308.62361900709	2
0	31613	18308.769480424651	1
0	31616	18309.981543683351	0
0	31620	18310.469420528592	1
0	31622	18311.125737023506	2
0	31623	18311.871692289875	1
0	31627	18312.87273832972	2
0	31628	18313.210243616344	1
0	31631	18314.547784791419	0
0	31635	18315.610795947793	1
0	31636	18315.937662631551	0
0	31670	18355.043927165059	1
0	31671	18355.65403714042	0
0	31700	18383.637830013631	1
0	31701	18385.100904632783	0
0	31705	18385.82081130083	1
0	31706	18386.325167733109	0
0	31710	18387.564122320827	1
0	31711	18388.086374037577	0
0	31720	18391.263522276326	1
0	31722	18391.700938093727	2
0	31723	18392.503144998946	1
0	31726	18393.763699144036	0
0	31755	18413.731143456744	1
0	31756	18414.538879727473	0
0	31760	18414.565342721681	1
0	31761	18415.92815968999	0
0	31775	18423.050405575357	1
0	31776	18424.627829361917	0
0	31780	18426.055812192089	1
0	31781	18426.057564158203	0
0	31805	18438.291206248601	1
0	31806	18439.856345811421	0
0	31810	18440.932345000285	1
0	31811	18441.263255656632	0
0	31815	18441.709262441969	1
0	31816	18442.596383995684	0
0	31820	18443.893759331945	1
0	31822	18444.19533101702	2
0	31823	18444.203074927936	1
0	31826	18445.805855717259	0
0	31830	18446.856525221455	1
0	31831	18447.347382539632	0
0	31850	18453.612420116608	1
0	31851	18454.602449569605	0
0	31860	18484.271811180405	1
0	31861	18485.754625883306	0
0	31865	18485.90906134989	1
0	31866	18487.354379263314	0
0	31870	18488.361894915645	1
0	31871	18489.166517293247	0
0	31877	18490.595073926141	1
0	31878	18490.804058535191	0
0	31882	18491.465970031286	1
0	31883	18492.089950522947	0
0	31887	18492.136724075583	1
0	31889	18492.833175147529	2
0	31890	18493.95884246936	1
0	31894	18495.573952004862	2
0	31895	18495.728011228497	1
0	31899	18496.60706851373	2
0	31900	18497.296676850672	1
0	31904	18498.836490982606	2
0	31905	18498.883496974948	1
0	31908	18500.355947599541	0
0	31912	18501.189478976732	1
0	31913	18501.917384289186	0
0	31920	18504.094253789208	1
0	31923	18505.737370037268	0
0	31927	18505.769417561887	1
0	31930	18507.098753321151	0
0	31940	18510.483076961024	1
0	31941	18512.259479962456	0
0	31955	18529.064531997259	1
0	31957	18530.552627431535	2
0	31958	18530.628984132003	1
0	31961	18532.436652765576	0
0	31965	18532.440713374586	1
0	31967	18532.512401981862	2
0	31968	18534.353543888744	1
0	31972	18535.640520713106	2
0	31973	18535.955999848399	1
0	31977	18536.643388377973	2
0	31978	18537.729029549438	1
0	31981	18539.619228218648	0
0	31995	18545.11137771862	1
0	31996	18545.845968814763	0
0	32000	18546.002908015719	1
0	32001	18547.239587063166	0
0	32005	18547.284160763789	1
0	32006	18548.698451674553	0
0	32010	18549.278125207022	1
0	32011	18550.080911106067	0
0	32015	18550.613527589312	1
0	32016	18551.622118873717	0
0	32035	18568.47540740192	1
0	32036	18569.08334381306	0
0	32045	18573.670786926578	1
0	32046	18573.687751090897	0
0	32050	18573.723159535634	1
0	32053	18575.450142036376	0
0	32060	18577.064417156834	1
0	32061	18578.047858467323	0
0	32070	18579.761481714827	1
0	32071	18580.547685793784	0
0	32075	18582.161462597471	1
0	32076	18582.478700148311	0
0	32085	18585.996273467061	1
0	32086	18586.077495306062	0
0	32110	18604.020831659173	1
0	32111	18605.550484266384	0
0	32115	18606.498212587827	1
0	32116	18607.103588607414	0
0	32125	18609.896722046687	1
0	32126	18610.483877578882	0
0	32130	18611.320080470632	1
0	32131	18612.33999441987	0
0	32135	18613.01779826019	1
0	32137	18613.456585882108	2
0	32138	18614.153716069778	1
0	32142	18615.07800800139	2
0	32143	18615.98689297991	1
0	32148	18617.214596837332	0
0	32152	18617.280267455811	1
0	32154	18617.784257229885	2
0	32156	18618.97341950724	3
0	32157	18618.989838132394	2
0	32160	18620.250885761847	1
0	32163	18621.895272798036	0
0	32167	18622.16745079894	1
0	32168	18623.568848513198	0
0	32172	18624.077823025486	1
0	32173	18625.525750128497	0
0	32180	18627.229415563575	1
0	32182	18627.338376111562	2
0	32183	18628.175399094206	1
0	32186	18629.948070971799	0
0	32190	18630.392846732088	1
0	32191	18631.235388673787	0
0	32200	18633.096527114151	1
0	32201	18634.782992671433	0
0	32260	18708.857258949031	1
0	32261	18710.114663714095	0
0	32275	18717.950798450403	1
0	32278	18718.566980804353	0
0	32282	18719.653215232152	1
0	32283	18720.525024387463	0
0	32287	18720.719469886718	1
0	32288	18721.916964109651	0
0	32295	18723.706794604857	1
0	32296	18724.957198233938	0
0	32305	18729.536987855951	1
0	32306	18730.354863121476	0
0	32310	18732.1313319724	1
0	32311	18732.210706628975	0
0	32320	18734.759990637803	1
0	32322	18734.807122046173	2
0	32323	18735.728255697404	1
0	32327	18736.881225987424	2
0	32328	18737.727377462265	1
0	32331	18739.372411873628	0
0	32335	18739.871797242693	1
0	32336	18740.708187339519	0
0	32355	18749.989804509468	1
0	32356	18751.599852666686	0
0	32370	18757.599039525283	1
0	32371	18759.313528142661	0
0	32375	18760.461421903469	1
0	32376	18760.634030554608	0
0	32380	18761.652394716308	1
0	32381	18762.163208685421	0
0	32385	18762.989827908629	1
0	32386	18763.56310357114	0
0	32405	18771.323534722957	1
0	32406	18771.488810272964	0
0	32417	18774.771320426085	1
0	32419	18774.914067404885	2
0	32420	18774.9988339166	1
0	32425	18776.393716034929	0
0	32432	18778.421055690785	1
0	32434	18779.023638748339	2
0	32435	18779.777919892485	1
0	32438	18781.452308507341	0
0	32442	18782.277029205776	1
0	32444	18782.66481335359	2
0	32445	18782.939124175984	1
0	32449	18783.480717381724	2
0	32450	18784.642003498304	1
0	32454	18785.061660480342	2
0	32455	18786.37613551345	1
0	32459	18786.538265867058	2
0	32460	18788.299909134473	1
0	32463	18789.901987128224	0
0	32467	18790.508796269884	1
0	32468	18791.105645570982	0
0	32475	18793.081700156208	1
0	32476	18794.615141953792	0
0	32485	18797.364781362623	1
0	32486	18797.431648697968	0
0	32510	18821.27785864367	1
0	32513	18821.910998455411	0
0	32520	18824.333732435693	1
0	32521	18825.017990416451	0
0	32535	18840.239420557504	1
0	32536	18840.25420768011	0
0	32560	18865.851719713731	1
0	32562	18866.172031489175	2
0	32563	18866.651347597846	1
0	32567	18867.619673735712	2
0	32568	18868.332724450127	1
0	32571	18870.152261077025	0
0	32575	18870.954449439668	1
0	32577	18872.0218930991	2
0	32578	18872.095930371591	1
0	32581	18873.99799915661	0
0	32595	18879.979389260226	1
0	32596	18880.226719162248	0
0	32610	18886.343687659009	1
0	32611	18887.329718040529	0
0	32615	18887.983856744653	1
0	32616	18888.746267817769	0
0	32630	18892.826392720454	1
0	32631	18893.99256149032	0
0	32670	18918.618442750221	1
0	32671	18919.466548973764	0
0	32675	18920.623234034989	1
0	32676	18920.757755495677	0
0	32685	18923.451525482184	1
0	32687	18924.249860569441	2
0	32688	18924.61177080774	1
0	32692	18924.869603792532	2
0	32693	18925.863372707342	1
0	32697	18927.046430069461	2
0	32698	18927.755720864025	1
0	32702	18929.45360911407	2
0	32703	18929.644626275984	1
0	32707	18930.234177964667	2
0	32708	18931.623239657817	1
0	32712	18932.552428794886	2
0	32713	18933.541138594573	1
0	32716	18934.993885768925	0
0	32720	18935.081104148269	1
0	32721	18936.436065229376	0
0	32725	18938.173428743602	1
0	32726	18938.40005331931	0
0	32740	18950.03518407893	1
0	32742	18950.707090019401	2
0	32743	18951.4989194499	1
0	32746	18952.988098110226	0
0	32770	18972.682689362278	1
0	32771	18973.433572854841	0
0	32780	18975.363898654183	1
0	32783	18977.066228338325	0
0	32790	18979.312117990045	1
0	32791	18980.503720078052	0
[...]
8	35953	20800.67075297007	1
8	35956	20802.182449158036	0
8	35960	20803.389907453565	1
8	35961	20803.396081198134	0
8	36045	20848.867569702333	1
8	36047	20850.379536092282	2
8	36048	20850.719454514114	1
8	36057	20853.186144045338	2
8	36059	20854.041640000207	3
8	36060	20854.107861695317	2
8	36074	20858.301631433715	3
8	36075	20858.435581058701	2
8	36083	20861.371514078853	1
8	36086	20862.711646137637	0
8	36090	20863.348352338265	1
8	36091	20863.97609216391	0
8	36314	20996.99144231459	1
8	36386	21023.487270195791	0
8	36512	21076.51877957465	1
8	36521	21080.097692489663	2
8	36533	21084.447498716882	1
8	36536	21086.249890075347	0
8	36565	21095.109864356481	1
8	36566	21096.662534631694	0
8	36587	21102.761919155633	1
8	36589	21103.028442608686	2
8	36603	21109.718450120834	1
8	36606	21111.048762419445	0
8	36652	21151.675932299725	1
8	36656	21153.828632689746	0
8	36810	21257.459054305894	1
8	36811	21257.726854485044	0
8	36890	21325.714064888567	1
8	36891	21327.233473321463	0
8	36947	21381.868121603452	1
8	36951	21383.443480197777	0
8	36964	21386.107289680821	1
8	36969	21386.921331391408	2
8	36974	21388.293208842093	3
8	36975	21389.142924488587	2
8	36978	21390.76260646793	1
8	36982	21391.286188669449	2
8	36983	21392.033589561721	1
8	36987	21393.062172612667	2
8	36988	21393.998613104475	1
8	37002	21398.128541414267	2
8	37009	21398.848961965938	3
8	37011	21399.293292697409	4
8	37017	21402.089790201997	3
8	37021	21402.961066064172	4
8	37023	21403.810664770213	5
8	37024	21404.03549172773	4
8	37028	21404.368121870828	5
8	37034	21407.824433935498	4
8	37042	21410.644513816078	3
8	37045	21412.58949213053	2
8	37053	21415.528938007792	1
8	37059	21416.830405063584	2
8	37074	21422.664278015202	3
8	37075	21422.846604334256	2
8	37078	21424.599187881751	1
8	37082	21424.76590316003	2
8	37088	21427.975459156437	1
8	37096	21430.769244074701	0
8	37152	21451.91618451567	1
8	37156	21455.090659384093	0
8	37167	21458.38566200425	1
8	37171	21460.542519582727	0
8	37175	21460.58320921726	1
8	37176	21461.937060991035	0
8	37180	21463.317617738648	1
8	37181	21463.555772249133	0
8	37220	21485.526508614957	1
8	37221	21485.997247548854	0
8	37255	21507.456858384352	1
8	37262	21509.120968053929	2
8	37263	21509.953318973357	1
8	37274	21512.881238387557	2
8	37308	21526.076883480052	1
8	37321	21530.745318650367	0
8	37431	21589.962044656157	1
8	37469	21601.392681279994	2
8	37498	21612.079993025979	1
8	37501	21613.357757521627	0
8	37715	21827.6469835558	1
8	37716	21828.374338191336	0
8	37730	21832.267037506244	1
8	37731	21833.267476225419	0
8	37799	21879.977368213803	1
8	37811	21884.981927670255	0
8	37882	21910.335241435038	1
8	37897	21914.224600048017	2
8	37898	21915.087370929109	1
8	37901	21916.703325480023	0
8	37967	21954.332233573884	1
8	37971	21957.230136196376	0
8	38024	22004.223437709166	1
8	38061	22018.528194392807	0
8	38065	22018.550622596936	1
8	38071	22021.828181522115	0
8	38150	22076.515084567065	1
8	38151	22077.762969224438	0
8	38160	22080.082395617683	1
8	38171	22083.141512576587	0
8	38227	22124.976055166751	1
8	38231	22127.935522221481	0
8	38245	22132.54025470228	1
8	38246	22134.11464281817	0
8	38250	22134.278106527388	1
8	38251	22135.853025816093	0
8	38267	22140.905159590752	1
8	38276	22145.655963878275	0
8	38337	22184.224426594517	1
8	38341	22185.849735719755	0
8	38365	22194.059459932212	1
8	38411	22207.945003783456	2
8	38420	22209.934206897688	3
8	38435	22217.364444470136	2
8	38453	22224.124506616509	1
8	38456	22225.814383575609	0
8	38475	22245.594643498756	1
8	38476	22245.622388311938	0
8	38555	22312.720544256435	1
8	38556	22314.344841520124	0
8	38575	22320.873535029824	1
8	38576	22322.289772878538	0
8	38590	22326.979611230692	1
8	38591	22328.013765180993	0
8	38715	22428.060816868744	1
8	38716	22429.33785481008	0
8	38725	22431.097485395522	1
8	38751	22441.598042786702	0
8	38765	22452.21341248311	1
8	38766	22452.301735441261	0
8	38770	22452.656898954991	1
8	38771	22454.085651862868	0
8	38790	22466.165489900176	1
8	38791	22467.205205112208	0
8	38870	22567.115799136419	1
8	38881	22572.541847626484	0
8	38890	22575.035807309207	1
8	38891	22575.501301973678	0
8	38905	22582.523707868038	1
8	38916	22586.29025108645	0
8	38930	22596.03225779323	1
8	38939	22598.295671947502	2
8	38948	22602.162918457917	1
8	38961	22607.405831403627	0
8	39040	22643.75097912428	1
8	39051	22647.501930611065	0
8	39062	22651.037613265182	1
8	39071	22654.436882406312	0
8	39080	22657.129485635956	1
8	39081	22657.715632753658	0
8	39090	22659.970485954136	1
8	39091	22661.617332330181	0
8	39115	22672.419269694383	1
8	39116	22673.053304760062	0
8	39210	22722.051424278237	1
8	39211	22723.050860283115	0
8	39305	22752.568156306356	1
8	39311	22755.888075279543	0
8	39572	22990.212678378952	1
8	39597	22997.450630406799	2
8	39598	22998.290968222635	1
8	39612	23003.460194754229	2
8	39613	23003.821025027426	1
8	39616	23005.5782271157	0
8	39740	23061.722527484314	1
8	39741	23062.940104102395	0
8	40180	23466.383073251865	1
8	40202	23472.813872159606	2
8	40208	23475.807543865698	1
8	40212	23476.725021719853	2
8	40213	23477.316279913033	1
8	40217	23477.734168673399	2
8	40218	23479.27387787431	1
8	40221	23481.223162682648	0
8	40225	23481.37857357396	1
8	40226	23482.497503988925	0
8	40312	23544.813148662434	1
8	40356	23560.441602440229	0
8	40390	23574.049594633107	1
8	40391	23575.724984509264	0
8	40518	23615.209223921334	1
8	40554	23628.934358335734	2
8	40558	23630.963849440891	1
8	40567	23633.015223559485	2
8	40568	23634.747335913147	1
8	40577	23636.151312474279	2
8	40583	23638.799261024523	1
8	40586	23640.013101963814	0
8	40592	23640.931231886305	1
8	40596	23643.465841213915	0
8	41002	23960.753908857697	1
8	41006	23962.533550442917	0
8	41020	23966.343698203454	1
8	41021	23967.252687974994	0
8	41032	23969.141755879503	1
8	41036	23972.299002817249	0
8	41087	23995.32321548496	1
8	41091	23997.213312778948	0
8	41160	24048.810901561279	1
8	41161	24048.862509309368	0
8	41170	24050.815632442086	1
8	41171	24051.708996274935	0
8	41320	24182.589627923172	1
8	41321	24183.179561646179	0
8	41377	24210.946124911614	1
8	41391	24217.194619663803	0
8	41540	24335.204948463992	1
8	41541	24336.185417298884	0
8	41762	24439.068142671678	1
8	41769	24440.892080659975	2
8	41778	24445.230502655898	1
8	41792	24449.102118426641	2
8	41793	24449.976246180182	1
8	41801	24453.251519910415	0
8	42047	24603.725015986461	1
8	42057	24606.343634318104	2
8	42063	24609.929532550624	1
8	42071	24613.019526136084	0
8	42105	24634.711555895667	1
8	42106	24635.606392927924	0
8	42145	24665.37011676432	1
8	42146	24667.205672122544	0
8	42165	24679.345540476609	1
8	42166	24679.904505575311	0
8	42185	24693.705368271601	1
8	42186	24694.137290595261	0
8	42240	24729.536747369361	1
8	42241	24730.543986469951	0
8	42292	24778.612328418949	1
8	42296	24780.825527695271	0
8	42510	24913.795511998634	1
8	42511	24914.402491608047	0
8	42515	24915.353319421886	1
8	42516	24915.9276458902	0
8	42520	24916.722066575116	1
8	42526	24918.686427932577	0
8	42532	24920.048399182549	1
8	42537	24921.410012833503	2
8	42538	24921.751289884718	1
8	42541	24923.281916337805	0
8	42675	25003.02620297066	1
8	42676	25004.753911102767	0
8	42770	25050.178434837387	1
8	42771	25050.872183523767	0
8	42830	25083.836854178825	1
8	42831	25084.238144068819	0
8	42840	25091.886184958107	1
8	42841	25092.388718041261	0
8	42845	25092.754244867903	1
8	42846	25093.93167266645	0
8	42870	25122.071322785919	1
8	42871	25122.961344045065	0
8	42917	25164.049813124064	1
8	42926	25167.68888327707	0
8	42930	25169.054714079315	1
8	42931	25169.672813215148	0
8	42945	25173.365890626567	1
8	42947	25174.132280488036	2
8	42948	25174.721690413865	1
8	42956	25175.956835346441	2
8	42966	25178.477460787978	3
8	42976	25181.699993138668	4
8	42977	25183.268371654625	3
8	42980	25185.094714155558	2
8	42983	25186.911830955322	1
8	42986	25188.267967349614	0
8	42997	25191.302566722877	1
8	43001	25193.277442079451	0
8	43007	25193.744912955236	1
8	43012	25195.39157357972	2
8	43013	25196.381613003131	1
8	43021	25199.662774080824	0
8	43145	25268.924664331801	1
8	43146	25270.538790407547	0
8	43155	25275.70892886083	1
8	43156	25276.376044119886	0
8	43175	25284.812270563101	1
8	43176	25285.776170807775	0
8	43180	25285.904461481143	1
8	43181	25287.016295562196	0
8	43247	25350.660976995451	1
8	43256	25355.871199171092	0
8	43267	25358.628307414001	1
8	43301	25369.552967986499	0
8	43320	25374.352462610533	1
8	43321	25375.923438062618	0
8	43355	25394.477256041853	1
8	43356	25395.01293768268	0
8	43360	25395.250957766362	1
8	43361	25396.235955602489	0
8	43387	25424.049983724189	1
8	43391	25426.278130505944	0
8	43405	25430.343551391545	1
8	43411	25432.099067886138	0
8	43424	25434.345075688505	1
8	43436	25440.286467731336	0
8	43467	25449.732367846587	1
8	43471	25452.021973168032	0
8	43597	25595.275582468103	1
8	43601	25597.279189254184	0
8	43615	25604.480099195531	1
8	43621	25607.29504354379	0
8	43637	25611.750169165538	1
8	43639	25611.95117472107	2
8	43643	25613.741669670556	1
8	43646	25615.346742633607	0
8	43650	25615.393361818474	1
8	43651	25616.903780972089	0
8	43655	25618.077918178052	1
8	43656	25618.550495892826	0
8	43662	25619.720487688809	1
8	43666	25621.193848896089	0
8	43680	25625.672606576152	1
8	43696	25631.211041336365	0
8	43700	25631.455044636755	1
8	43701	25633.127313750282	0
8	43720	25639.596166258609	1
8	43726	25642.673199852119	0
8	43735	25646.342482820627	1
8	43736	25646.714499897333	0
8	43912	25740.27380501914	1
8	43914	25740.988702398019	2
8	43923	25744.37861148788	1
8	43931	25747.539015483841	0
8	43935	25748.052288960579	1
8	43936	25749.297522149592	0
8	44045	25867.684413412865	1
8	44046	25868.667968878749	0
8	44175	25961.964433212704	1
8	44177	25961.997389257804	2
8	44178	25963.379688035278	1
8	44191	25968.591825599923	0
8	44415	26131.167019167928	1
8	44416	26132.631779767153	0
8	44420	26133.686720838499	1
8	44421	26134.103885402483	0
8	44482	26174.762199825087	1
8	44486	26176.433316252486	0
8	44497	26178.568774625216	1
8	44511	26184.099356506684	0
8	44667	26284.717464081974	1
8	44676	26288.030746347811	0
8	44875	26428.099822158598	1
8	44881	26430.617851452892	0
8	44895	26435.068201930051	1
8	44896	26435.12714707422	0
8	45015	26543.841603068149	1
8	45016	26544.690996276951	0
8	45420	26877.690392312042	1
8	45421	26879.022260414066	0
8	45430	26881.284461013038	1
8	45436	26883.581687059069	0
8	45740	27071.626444318938	1
8	45741	27072.878837542813	0
8	45750	27075.839009379156	1
8	45751	27076.371446399595	0
8	45755	27076.431381333121	1
8	45756	27077.818676163647	0
8	45765	27085.025274351991	1
8	45766	27085.224566987752	0
8	45787	27092.578352500388	1
8	45794	27094.010333146827	2
8	45801	27095.533546180046	3
8	45820	27102.490954842645	2
8	45826	27103.731838620034	3
8	45830	27105.913321127596	2
8	45838	27108.444749874662	1
8	45841	27110.082788378413	0
8	45850	27112.442897715284	1
8	45859	27114.763666156737	2
8	45864	27115.526338856108	3
8	45865	27116.50605413569	2
8	45868	27117.92723224433	1
8	45871	27119.515037124509	0
8	45875	27119.725581424168	1
8	45876	27121.128708045648	0
8	45887	27123.803993389766	1
8	45889	27124.226416001086	2
8	45891	27124.27669480975	3
8	45896	27125.740858124848	4
8	45907	27130.598489176015	3
8	45925	27136.478182754013	2
8	45938	27141.219604065734	1
8	45947	27142.70659179224	2
8	45948	27143.719052920583	1
8	45951	27145.330026411358	0
8	46000	27191.64731849273	1
8	46001	27191.839270117417	0
8	46165	27353.434229863714	1
8	46166	27354.031058975759	0
8	46184	27358.359556255938	1
8	46206	27367.502550480405	0
8	46252	27383.044513507407	1
8	46291	27393.447149279642	2
8	46298	27397.825125360789	1
8	46301	27399.560768007973	0
8	46305	27401.392102719821	1
8	46306	27401.555721633436	0
8	46310	27402.460231983167	1
8	46316	27405.093083016316	0
8	46325	27420.029410594608	1
8	46326	27420.615800076134	0
8	46355	27440.850489245895	1
8	46356	27440.917259600844	0
8	46430	27494.217693707478	1
8	46431	27494.540334310523	0
8	46485	27521.727007280927	1
8	46486	27522.799621325235	0
8	46490	27523.544911718616	1
8	46491	27524.409876051794	0
8	46510	27539.832389432827	1
8	46511	27540.248665239712	0
8	46530	27547.602606340267	1
8	46531	27548.361045251475	0
8	46585	27582.796028355139	1
8	46586	27583.113856888307	0
8	46637	27602.515701410362	1
8	46656	27609.586610605045	0
8	46727	27644.272117555491	1
8	46737	27648.564000747246	2
8	46739	27648.623337291426	3
8	46745	27650.116981403897	2
8	46758	27654.901045250142	1
8	46767	27657.378303147881	2
8	46768	27657.708132735262	1
8	46771	27658.974183671916	0
8	46787	27663.461912010035	1
8	46811	27671.773649341794	0
8	46845	27703.530467933698	1
8	46846	27704.477421176093	0
8	46925	27756.398347427639	1
8	46947	27764.16681333556	2
8	46948	27764.79952442331	1
8	46956	27767.476151095161	0
8	47040	27826.466007492344	1
8	47041	27827.71310577076	0
8	47057	27833.269026223902	1
8	47061	27835.038044806971	0
8	47080	27859.945019659242	1
8	47082	27860.357392724512	2
8	47083	27860.841311283955	1
8	47086	27862.757245358625	0
8	47090	27862.884935424388	1
8	47091	27864.231974296072	0
8	47100	27866.342569767103	1
8	47101	27867.679162589633	0
8	47135	27938.33266555496	1
8	47136	27939.86499583153	0
8	47140	27940.180358883649	1
8	47141	27941.705969151016	0
8	47195	27974.92421225662	1
8	47196	27974.942934297532	0
8	47375	28066.122291281682	1
8	47376	28066.434851521678	0
8	47405	28082.288648871529	1
8	47412	28085.096125418914	2
8	47413	28085.823498364225	1
8	47421	28088.522423959956	0
8	47425	28088.575360353997	1
8	47426	28090.065173984938	0
8	47445	28103.932700821903	1
8	47446	28104.043140395126	0
8	47520	28171.350643380867	1
8	47524	28171.891196726724	2
8	47536	28174.644237344955	3
8	47547	28177.558829737148	4
8	47557	28181.932299478851	3
8	47565	28185.521425481826	2
8	47568	28187.245295458414	1
8	47571	28188.876528532371	0
8	47659	28225.986597105322	1
8	47686	28237.05813664786	0
8	47697	28240.051132565896	1
8	47706	28243.252815960268	0
8	47715	28246.718897820779	1
8	47716	28247.1484188989	0
8	47740	28254.8287786485	1
8	47746	28257.058411010933	0
8	47752	28258.189647352559	1
8	47757	28258.743159903998	2
8	47758	28259.76570432244	1
8	47761	28261.753777518702	0
8	47765	28261.987762413119	1
8	47767	28262.0009699106	2
8	47768	28262.990154574272	1
8	47771	28264.542507101801	0
8	47817	28294.276113932161	1
8	47831	28299.055996446955	0
8	47875	28333.183911345651	1
8	47876	28334.538423966974	0
8	47885	28336.24193736052	1
8	47886	28337.485979399442	0
8	47905	28342.855924871156	1
8	47921	28348.748765679612	0
8	48010	28375.505771929618	1
8	48054	28393.182678317165	2
8	48068	28398.322777920721	1
8	48071	28400.032267713306	0
8	48085	28409.068492417254	1
8	48086	28410.499235478877	0
8	48095	28412.829910077123	1
8	48096	28413.450105959265	0
8	48110	28417.577910098919	1
8	48116	28420.3432078666	0
8	48175	28458.152580764491	1
8	48176	28458.463345566139	0
8	48185	28462.027302067882	1
8	48186	28462.557023994564	0
8	48200	28465.257488284971	1
8	48201	28466.512922102524	0
8	48255	28490.14286633718	1
8	48256	28491.455072293336	0
8	48465	28637.840649687173	1
8	48466	28638.667424694162	0
8	48475	28641.361520981351	1
8	48476	28642.520273924704	0
8	48500	28655.364670835356	1
8	48501	28656.422751753159	0
8	48505	28656.543439881199	1
8	48512	28659.0379565397	2
8	48513	28659.559820499212	1
8	48516	28661.171557622157	0
8	48637	28721.583020669072	1
8	48646	28725.520079193888	0
8	48744	28782.584631038125	1
8	48766	28790.862870071486	0
8	48787	28797.168270347729	1
8	48796	28801.5831086399	0
8	48845	28834.53068647686	1
8	48846	28835.347950076899	0
8	48860	28841.182247613009	1
8	48861	28841.715761476381	0
8	48865	28842.14537718346	1
8	48866	28843.633189444242	0
8	48905	28873.400759097835	1
8	48906	28874.523473528597	0
8	48950	28898.967348982732	1
8	48951	28899.327647662774	0
8	48960	28902.704037890688	1
8	48961	28903.530529351735	0
8	49022	28936.728286240282	1
8	49026	28938.796781538337	0
8	49044	28942.517460636163	1
8	49058	28946.685669018217	2
8	49078	28955.53872640445	1
8	49082	28955.942932427513	2
8	49091	28957.530083419782	3
8	49100	28962.36186447493	2
8	49103	28964.28408788196	1
8	49106	28965.81190678864	0
8	49185	29013.834409370761	1
8	49186	29014.53923175674	0
8	49202	29018.551147265332	1
8	49216	29024.439348576216	0
8	49220	29024.91756515369	1
8	49221	29025.990423133036	0
8	49225	29026.458810719375	1
8	49226	29027.261580256743	0
8	49232	29028.867021541942	1
8	49236	29031.11362514775	0
8	49270	29068.421098175664	1
8	49271	29070.242263998455	0
8	49290	29078.385492656069	1
8	49291	29079.26480067129	0
8	49297	29079.778736066483	1
8	49301	29081.936291521775	0
8	49317	29086.10461105362	1
8	49321	29088.822622185561	0
8	49345	29096.548918519256	1
8	49346	29098.34832432403	0
8	49360	29106.872739006689	1
8	49361	29107.639345154839	0
8	49385	29113.998527010915	1
8	49386	29115.903271826719	0
8	49410	29150.944384824845	1
8	49411	29151.824803814469	0
8	49505	29231.026184299812	1
8	49506	29231.995328951633	0
8	49575	29277.035113439772	1
8	49611	29289.278581003841	0
8	49705	29350.28974624903	1
8	49706	29351.401475550349	0
8	49715	29352.8853350072	1
8	49726	29358.203338928448	0
8	49735	29361.827655973912	1
8	49736	29362.779611177439	0
8	49765	29377.346623031692	1
8	49771	29379.304049536298	0
8	49825	29431.180402584721	1
8	49826	29431.952739297935	0
8	49837	29433.853955787157	1
8	49856	29441.247285173051	0
8	49925	29510.604298847634	1
8	49926	29512.171320437478	0
8	50125	29657.262087725617	1
8	50126	29657.521813692031	0
8	50134	29658.613656280773	1
8	50139	29659.82285746847	2
8	50143	29662.647055345466	1
8	50166	29668.501282699123	2
8	50178	29673.937182647986	1
8	50181	29675.909040562873	0
8	50190	29677.859305443593	1
8	50191	29679.514205624772	0
8	50210	29693.518224525028	1
8	50211	29695.192236703968	0
8	50250	29727.034222288509	1
8	50251	29727.466412196195	0
8	50260	29729.386285387107	1
8	50261	29730.748508349879	0
8	50282	29737.96778286831	1
8	50316	29748.948376016115	0
8	50325	29751.051498481642	1
8	50326	29752.069695964438	0
8	50364	29768.320698003432	1
8	50376	29773.671249694003	0
8	50511	29875.537698947766	1
8	50561	29893.397603953301	0
8	50587	29916.381234754795	1
8	50591	29918.680482284981	0
8	50625	29937.684025245315	1
8	50631	29939.866765617139	0
8	50635	29940.035527805874	1
8	50636	29941.134462698295	0
8	50640	29942.46714422638	1
8	50641	29942.570580919019	0
8	50685	29961.48552129213	1
8	50687	29961.893869005778	2
8	50688	29963.103851197471	1
8	50691	29964.657440780287	0
8	50720	29979.965406999035	1
8	50721	29981.000301554784	0
9	19215	10797.909892198791	1
9	19224	10801.689064732463	0
9	19497	11022.514182891642	1
9	19499	11023.522918573427	0
9	21020	11989.010024984711	1
9	21021	11989.759399843803	0
9	21685	12371.010096134507	1
9	21686	12371.107086488056	0
9	21910	12484.231127783964	1
9	21911	12484.269851193132	0
9	24740	14027.41508261714	1
9	24741	14032.525117363909	0
9	29030	16790.538517031759	1
9	29031	16792.929593922848	0
9	29045	16797.467851752134	1
9	29046	16798.133066828252	0
9	30922	17969.082393731579	1
9	30924	17970.040088433672	0
9	30932	17972.001840589971	1
9	30936	17974.847930679796	0
9	32792	18980.503720078052	1
9	32804	18984.664860128139	0
9	32850	19000.84574844429	1
9	32854	19003.221164601227	0
9	33269	19257.628266256258	1
9	33271	19259.081625712786	0
9	33955	19640.875620529549	1
9	33956	19642.105181495191	0
9	33967	19645.216840695308	1
9	33974	19647.876369444649	0
9	35059	20320.812399794859	1
9	35066	20325.781282573992	0
9	36054	20852.407700910298	1
9	36056	20853.186144045338	0
9	36994	21395.710553796468	1
9	37001	21398.128541414267	0
9	40232	23484.22532596692	1
9	40246	23498.732451771844	0
9	42984	25186.911830955322	1
9	42987	25188.267967349614	2
9	42991	25189.977980968584	1
9	42996	25191.302566722877	0
9	43707	25634.54053986878	1
9	43719	25639.596166258609	0
9	45760	27079.520379788819	1
9	45761	27083.836738908513	0
9	45770	27086.859748527817	1
9	45786	27092.578352500388	0
9	45845	27111.603407208662	1
9	45846	27111.941134691517	0
9	45854	27113.546776244509	1
9	45858	27114.763666156737	0
9	47777	28266.39683875816	1
9	47781	28268.274257694413	0
9	49041	28942.463668174996	1
9	49043	28942.517460636163	0

