version 2
run Third_exit_9-10-20191114-11:43:08-9061
attr configname Third_exit_9
attr datetime 20191114-11:43:08
attr experiment Third_exit_9
attr inifile omnetpp.ini
attr iterationvars ""
attr iterationvarsf ""
attr measurement ""
attr network ResponseTimeNetwork
attr processid 9061
attr repetition 10
attr replication #10
attr resultdir results
attr runnumber 10
attr seedset 10
param **.Source.interArrivalTime exponential(6s)
param **.jobPriority bernoulli(0.8)
param **.PS.serviceTimeU1 "uniform(1.2s, 2.0s)"
param **.PS.serviceTimeU2 "uniform(2.4s, 2.8s)"
param **.SS1.serviceTime exponential(1.4s)
param **.SS2.serviceTime exponential(2s)
param **.PS.exitProbability bernoulli(0.9)

vector 0 ResponseTimeNetwork.QueueU1 queueLength:vector ETV
attr interpolationmode sample-hold
attr title "queue length, vector"
vector 1 ResponseTimeNetwork.SS1 queueLength:vector ETV
attr interpolationmode sample-hold
attr title "queue length, vector"
vector 2 ResponseTimeNetwork.sink lifeTimeU1:vector ETV
attr interpolationmode none
attr title "lifetime of arrived jobs U1, vector"
attr unit s
vector 3 ResponseTimeNetwork.sink totalServiceTimeU1:vector ETV
attr interpolationmode none
attr title "the total time spent  by arrived jobs U1, vector"
attr unit s
vector 4 ResponseTimeNetwork.sink lifeTime:vector ETV
attr interpolationmode none
attr title "lifetime of arrived jobs, vector"
attr unit s
vector 5 ResponseTimeNetwork.sink totalServiceTime:vector ETV
attr interpolationmode none
attr title "the total time spent  by arrived jobs, vector"
attr unit s
vector 6 ResponseTimeNetwork.QueueU2 queueLength:vector ETV
attr interpolationmode sample-hold
attr title "queue length, vector"
0	33427	10000.191911896749	730
0	33430	10001.438893050572	729
0	33434	10002.04425034045	730
0	33435	10003.091630575119	729
0	33439	10003.899548893	730
0	33441	10004.883431470666	731
0	33442	10004.96527883379	730
0	33446	10005.130348442393	731
0	33448	10005.706971760553	732
0	33450	10005.811291974305	733
0	33452	10006.144910831492	734
0	33454	10006.353127490209	735
0	33456	10006.397475753986	736
0	33457	10006.87770478843	735
0	33461	10007.193036628051	736
0	33463	10007.854280518378	737
0	33464	10008.792331565416	736
0	33467	10010.516467201768	735
0	33471	10010.89120202946	736
0	33472	10011.89860811556	735
0	33475	10013.142938942707	734
0	33479	10014.823305482006	735
0	33480	10014.839582134842	734
0	33484	10015.473587559409	735
0	33485	10016.138037639915	734
0	33488	10017.386825098342	733
0	33492	10018.115416331697	734
0	33493	10019.371051485709	733
0	33497	10019.785507291382	734
0	33499	10020.492886236285	735
0	33501	10020.536130702616	736
0	33503	10020.853956762211	737
0	33505	10021.330338026474	738
0	33506	10021.347308601498	737
0	33509	10022.77292927137	736
0	33513	10023.326751061927	737
0	33516	10024.205169570878	736
0	33519	10025.951169971622	735
0	33523	10026.135924461048	736
0	33525	10026.265320770057	737
0	33527	10026.387162324688	738
0	33529	10027.267031851011	739
0	33530	10027.516485430173	738
0	33534	10028.226662247493	739
0	33535	10029.120659632109	738
0	33538	10031.062737356745	737
0	33542	10031.931359372772	738
0	33543	10032.93404881271	737
0	33546	10034.487970198564	736
0	33550	10034.687287852757	737
0	33551	10035.829346437625	736
0	33555	10036.533848589169	737
0	33557	10036.615006461816	738
0	33558	10037.655534597545	737
0	33561	10038.974613980076	736
0	33565	10039.455550159437	737
0	33566	10040.620063937328	736
0	33570	10041.16833024284	737
0	33571	10042.160838506616	736
0	33575	10042.268854371302	737
0	33577	10043.059066992859	738
0	33578	10043.45041155821	737
0	33581	10044.976161973982	736
0	33585	10045.704207981691	737
0	33587	10045.727503229546	738
0	33588	10046.787968091353	737
0	33591	10048.484166504315	736
0	33594	10049.935606050736	735
0	33598	10049.974987654021	736
0	33600	10050.350013621551	737
0	33601	10051.497003720945	736
0	33604	10052.814845065458	735
0	33607	10054.155178192502	734
0	33610	10055.502351111045	733
0	33614	10056.209340511012	734
0	33615	10057.398901516443	733
0	33619	10057.774705371041	734
0	33621	10059.037095217285	735
0	33622	10059.059133052138	734
0	33625	10060.875888249335	733
0	33629	10061.259865601572	734
0	33630	10062.479963300807	733
0	33634	10062.557460404443	734
0	33636	10062.833707009937	735
0	33637	10064.411777615791	734
0	33641	10065.666741546414	735
0	33643	10065.682549957602	736
0	33644	10066.081240262708	735
0	33648	10066.646243791613	736
0	33650	10066.723902890343	737
0	33652	10067.685862063782	738
0	33654	10067.781539557469	739
0	33655	10067.977600127517	738
0	33659	10068.836064467327	739
0	33660	10069.885657976626	738
0	33664	10071.113554850319	739
0	33665	10071.671613136737	738
0	33669	10072.792541205643	739
0	33670	10073.000988672359	738
0	33674	10073.38050239242	739
0	33675	10074.38790069042	738
0	33679	10074.902952474003	739
0	33680	10075.817373875959	738
0	33684	10076.060071414434	739
0	33685	10077.21675530771	738
0	33689	10077.272078707238	739
0	33690	10078.691269377304	738
0	33693	10080.401636840461	737
0	33697	10080.476710807038	738
0	33699	10081.288960836176	739
0	33700	10081.838110672927	738
0	33704	10082.076414251143	739
0	33705	10083.212630441471	738
0	33709	10084.467781881243	739
0	33710	10084.647134598962	738
0	33714	10086.024317189472	739
0	33715	10086.271566749609	738
0	33719	10087.094359132003	739
0	33720	10087.965227596893	738
0	33724	10089.023558482227	739
0	33725	10089.697427004262	738
0	33728	10090.912006735115	737
0	33731	10092.294734168297	736
0	33735	10092.998616061343	737
0	33736	10093.50514946176	736
0	33740	10094.407515333479	737
0	33741	10095.050767188578	736
0	33744	10096.683321544214	735
0	33748	10097.409906991881	736
0	33750	10097.670266249616	737
0	33751	10098.301041888504	736
0	33754	10099.843859436421	735
0	33758	10100.298333815552	736
0	33759	10101.628933365329	735
0	33763	10101.881997569997	736
0	33765	10102.220849808543	737
0	33767	10102.277567997518	738
0	33769	10102.630456168769	739
0	33770	10103.453861486411	738
0	33774	10103.615928888807	739
0	33775	10105.356969183741	738
0	33778	10107.223431734798	737
0	33781	10109.079522984905	736
0	33785	10109.637228248055	737
0	33786	10110.906052215827	736
0	33790	10111.523744086349	737
0	33791	10112.30826821929	736
0	33795	10112.592950807166	737
0	33797	10112.687857628406	738
0	33799	10112.718534593252	739
0	33801	10112.794263590176	740
0	33803	10113.198577896833	741
0	33805	10113.723169967585	742
0	33806	10113.74649620006	741
0	33810	10115.04366089783	742
0	33811	10115.135456501936	741
0	33815	10116.054124722794	742
0	33816	10116.741194426698	741
0	33820	10117.966416040591	742
0	33821	10118.376741045771	741
0	33824	10119.794728343246	740
0	33827	10121.626647035276	739
0	33830	10123.398680419346	738
0	33834	10124.457683920666	739
0	33836	10124.608255124868	740
0	33837	10124.870105689076	739
0	33841	10126.066723248755	740
0	33842	10126.119308426474	739
0	33846	10126.790001677122	740
0	33847	10127.463466741388	739
0	33851	10127.542736796477	740
0	33852	10129.295364226644	739
0	33856	10129.969075880766	740
0	33858	10130.199706520535	741
0	33860	10130.243037716539	742
0	33861	10130.586161241924	741
0	33864	10132.264613754173	740
0	33868	10132.416618829099	741
0	33869	10133.541623099205	740
0	33872	10134.883122315873	739
0	33876	10135.444639000127	740
0	33878	10135.730581485288	741
0	33880	10136.170042371203	742
0	33881	10136.764985216093	741
0	33885	10137.812535690347	742
0	33886	10138.173659592178	741
0	33890	10139.575531460413	742
0	33891	10139.630965275001	741
0	33895	10139.905511487176	742
0	33897	10140.963341565414	743
0	33898	10141.187493083682	742
0	33902	10141.401133804348	743
0	33904	10141.652143779769	744
0	33905	10142.575391353723	743
0	33909	10143.636000965987	744
0	33911	10143.743053237912	745
0	33912	10144.19024750894	744
0	33916	10144.4932317964	745
0	33917	10145.968890502733	744
0	33921	10146.012125971231	745
0	33923	10147.359825496684	746
0	33924	10147.422494213712	745
0	33928	10148.505288467763	746
0	33929	10148.868791992274	745
0	33932	10150.075296476168	744
0	33935	10151.848114131262	743
0	33939	10151.879820179992	744
0	33940	10153.222679874917	743
0	33944	10153.993681222495	744
0	33945	10154.923574023006	743
0	33949	10155.193105051793	744
0	33950	10156.460637897124	743
0	33954	10157.869491559643	744
0	33955	10158.013122094852	743
0	33959	10158.704938766432	744
0	33961	10159.649881804385	745
0	33962	10159.793960406502	744
0	33966	10160.573136336245	745
0	33968	10161.263889349687	746
0	33969	10161.360265473706	745
0	33972	10162.828623545041	744
0	33975	10164.764123717567	743
0	33979	10164.808576696754	744
0	33982	10166.634644291235	743
0	33986	10167.07946604782	744
0	33988	10167.173015921983	745
0	33989	10168.078456411941	744
0	33992	10169.433239070384	743
0	33996	10170.352614232171	744
0	33998	10170.750617272022	745
0	33999	10171.257925756147	744
0	34002	10172.656911838485	743
0	34006	10173.659545097569	744
0	34007	10173.986655996053	743
0	34010	10175.686102028436	742
0	34014	10175.921834101192	743
0	34016	10176.19059324792	744
0	34017	10177.395338544308	743
0	34021	10177.648705683592	744
0	34023	10178.424088096899	745
0	34024	10178.739862029872	744
0	34027	10180.567534928269	743
0	34031	10180.693170166273	744
0	34033	10181.427120417733	745
0	34034	10182.123646887264	744
0	34038	10182.802482937032	745
0	34039	10183.957368828601	744
0	34043	10184.35254120115	745
0	34044	10185.172094818263	744
0	34048	10185.993495100428	745
0	34050	10186.002084579286	746
0	34051	10186.552181426867	745
0	34054	10187.831538391917	744
0	34057	10189.117365605629	743
0	34061	10189.237521972938	744
0	34062	10190.559370255343	743
0	34066	10190.890029477821	744
0	34067	10191.89280824276	743
0	34071	10193.124676987249	744
0	34072	10193.425029753953	743
0	34076	10193.908741687436	744
0	34078	10193.975818684471	745
0	34079	10194.77854464563	744
0	34085	10195.874982872788	745
0	34087	10196.11083391933	746
0	34088	10196.754427470885	745
0	34092	10197.206285420817	746
0	34094	10197.335552772021	747
0	34095	10198.381450884849	746
0	34098	10200.230924436324	745
0	34102	10201.661363863867	746
0	34103	10201.98110524273	745
0	34107	10202.031834654732	746
0	34109	10202.336222620526	747
0	34111	10202.583144134102	748
0	34112	10203.801260815994	747
0	34116	10204.106989911263	748
0	34117	10205.471381419026	747
0	34121	10206.46161404147	748
0	34123	10206.843457911375	749
0	34125	10207.227618012822	750
0	34126	10207.391586806313	749
0	34130	10207.600711966754	750
0	34132	10208.546013118777	751
0	34133	10208.973211082318	750
0	34136	10210.401492651613	749
0	34140	10211.013037241504	750
0	34142	10211.212169051124	751
0	34143	10212.341690873043	750
0	34146	10214.053897392624	749
0	34150	10214.500428921694	750
0	34152	10214.673193029268	751
0	34153	10215.378804077082	750
0	34156	10216.786674612821	749
0	34160	10217.77021991462	750
0	34161	10218.757649000236	749
0	34165	10219.333447088739	750
0	34167	10219.806989384375	751
0	34168	10220.411382483938	750
0	34172	10220.783890476682	751
0	34174	10221.131004358264	752
0	34176	10221.621249859036	753
0	34177	10221.686654940122	752
0	34181	10222.401830217883	753
0	34182	10222.968912089677	752
0	34185	10224.562323058644	751
0	34188	10225.974852760197	750
0	34192	10227.077970733761	751
0	34193	10227.394258003743	750
0	34197	10227.436850050685	751
0	34198	10229.023723672764	750
0	34202	10229.533662914573	751
0	34203	10230.571982964376	750
0	34206	10232.002681202689	749
0	34210	10232.403296703733	750
0	34212	10232.540470821619	751
0	34213	10233.300983495327	750
0	34217	10234.526506618003	751
0	34218	10234.57886297057	750
0	34222	10234.847140780587	751
0	34223	10236.568236964257	750
0	34227	10237.267478725072	751
0	34228	10238.143533263603	750
0	34231	10240.054924283238	749
0	34234	10241.626383930692	748
0	34239	10243.030687130117	747
0	34243	10243.21302681158	748
0	34245	10244.155686230854	749
0	34247	10244.219698989213	750
0	34248	10244.470026104585	749
0	34252	10245.715678796475	750
0	34254	10245.72854158483	751
0	34255	10246.052803855077	750
0	34259	10246.227252759437	751
0	34260	10247.6847262927	750
0	34264	10248.165989081535	751
0	34265	10249.134708687723	750
0	34269	10250.840731785063	751
0	34270	10251.106228310302	750
0	34273	10252.595241323918	749
0	34277	10253.696606573559	750
0	34279	10253.910050178527	751
0	34280	10254.268739567384	750
0	34284	10254.837935978325	751
0	34286	10255.032873782214	752
0	34287	10255.502075760499	751
0	34293	10256.613193163398	752
0	34294	10257.264805084527	751
0	34298	10258.005495015589	752
0	34300	10258.656248012564	753
0	34301	10258.957792543307	752
0	34304	10260.491608985014	751
0	34308	10260.743659428075	752
0	34310	10261.97556858014	753
0	34311	10262.178247141711	752
0	34314	10264.140996044747	751
0	34318	10264.149691327443	752
0	34320	10264.69440781982	753
0	34321	10265.709780633136	752
0	34325	10266.611916160075	753
0	34326	10267.254270089849	752
0	34330	10267.506030724194	753
0	34331	10268.455007437489	752
0	34335	10268.806511910847	753
0	34336	10270.286876982509	752
0	34340	10271.711625429175	753
0	34341	10272.048955111823	752
0	34345	10272.541151228623	753
0	34347	10273.207061501239	754
0	34348	10273.590553948156	753
0	34352	10273.636119836306	754
0	34354	10273.931418995301	755
0	34355	10275.290779900424	754
0	34359	10275.341215290815	755
0	34361	10275.847922008338	756
0	34362	10277.095741210751	755
0	34366	10277.651475673971	756
0	34367	10278.645027335606	755
0	34370	10280.396818246193	754
0	34374	10282.021462870084	755
0	34375	10282.153532229051	754
0	34379	10282.982824960315	755
0	34380	10284.103324336246	754
0	34384	10284.324054105154	755
0	34385	10286.083124549933	754
0	34388	10288.042894643978	753
0	34392	10289.223389782478	754
0	34393	10290.029750979752	753
0	34397	10291.690732351831	754
0	34398	10291.745010890127	753
0	34402	10292.232606645653	754
0	34403	10293.380702874497	753
0	34407	10293.418905978532	754
0	34410	10294.913461408824	753
0	34414	10295.184763252104	754
0	34416	10295.344306333975	755
0	34420	10296.536953579829	756
0	34421	10296.719099391684	755
0	34425	10296.739662513552	756
0	34427	10297.956241437453	757
0	34428	10298.049642216474	756
0	34431	10299.602444189847	755
0	34435	10300.559322473486	756
0	34436	10301.262594556682	755
0	34439	10302.47341057124	754
0	34442	10304.408416819446	753
0	34446	10305.036782499151	754
0	34447	10305.745431557171	753
0	34451	10306.277270723401	754
0	34453	10306.503694650605	755
0	34454	10307.022500716396	754
0	34457	10308.357388732083	753
0	34461	10309.505421917564	754
0	34462	10309.844898334019	753
0	34466	10310.463959281487	754
0	34468	10310.748933110733	755
0	34470	10310.847987363169	756
0	34471	10311.201764814802	755
0	34474	10312.584882996478	754
0	34478	10312.741712279466	755
0	34479	10314.562120755636	754
0	34482	10316.202701848806	753
0	34487	10317.853306624913	752
0	34491	10319.021559900651	753
0	34492	10319.053739792728	752
0	34496	10319.448570682258	753
0	34498	10319.598191885409	754
0	34500	10319.921136562265	755
0	34502	10320.341557994585	756
0	34504	10320.362182999942	757
0	34505	10320.862434572228	756
0	34508	10322.37501093714	755
0	34512	10323.051886675173	756
0	34513	10323.998658585422	755
0	34516	10325.232983154863	754
0	34520	10325.402694866139	755
0	34522	10325.609567445888	756
0	34523	10326.787216542721	755
0	34527	10326.817719277115	756
0	34529	10327.631114097092	757
0	34530	10328.35918391446	756
0	34534	10328.47810830742	757
0	34535	10330.151996419266	756
0	34540	10331.380097417034	755
0	34546	10332.353391735596	756
0	34547	10332.626565195307	755
0	34551	10334.328801865552	756
0	34552	10334.424658479601	755
0	34555	10335.664078694828	754
0	34559	10336.470044693394	755
0	34561	10337.051930672791	756
0	34562	10337.298218258716	755
0	34568	10338.391606609176	756
0	34570	10338.639192730114	757
0	34571	10338.745856983274	756
0	34575	10339.607697610793	757
0	34576	10340.728512350902	756
0	34579	10342.644313395456	755
0	34583	10343.275882930601	756
0	34585	10343.954145655543	757
0	34586	10344.494695845306	756
0	34590	10344.557500949914	757
0	34592	10345.830568993336	758
0	34593	10346.016341548659	757
0	34597	10346.470711106668	758
0	34599	10346.490516269356	759
0	34600	10347.394202082105	758
0	34604	10347.536632112667	759
0	34605	10349.207078758501	758
0	34608	10350.474633312285	757
0	34611	10352.414668505698	756
0	34615	10353.556990501808	757
0	34616	10354.350956663735	756
0	34620	10354.768133427638	757
0	34621	10356.261876718573	756
0	34625	10357.472581357801	757
0	34626	10357.816356146395	756
0	34630	10358.609251441346	757
0	34631	10359.154383911066	756
0	34635	10359.584457160209	757
0	34636	10360.367668333709	756
0	34639	10362.003373032123	755
0	34643	10362.376486234422	756
0	34645	10362.759195373172	757
0	34646	10363.974442245312	756
0	34649	10365.190126336426	755
0	34653	10365.275235845203	756
0	34655	10365.304055919874	757
0	34656	10366.488599251457	756
0	34660	10367.294965036075	757
0	34661	10368.351803102963	756
0	34665	10369.772178111288	757
0	34666	10370.281472471044	756
0	34670	10370.720974469978	757
0	34671	10371.879459587172	756
0	34675	10373.01244377583	757
0	34676	10373.171662920401	756
0	34680	10373.280366439301	757
0	34681	10374.709665545509	756
0	34684	10376.083772809678	755
0	34688	10376.829539595779	756
0	34689	10377.767131261775	755
0	34692	10379.086059549698	754
0	34696	10379.271174266832	755
0	34699	10380.498879784965	754
0	34703	10380.623137639929	755
0	34705	10381.953298570884	756
0	34706	10382.189252669797	755
0	34710	10382.486210665064	756
0	34712	10383.173692808763	757
0	34713	10383.735234881066	756
0	34716	10385.245549430013	755
0	34720	10385.301809742121	756
0	34722	10386.011962071206	757
0	34724	10386.779121923611	758
0	34725	10387.055006722421	757
0	34729	10387.720598513657	758
0	34730	10388.396631063022	757
0	34734	10389.915581446878	758
0	34735	10390.041422306061	757
0	34739	10391.104568635226	758
0	34740	10391.676390541963	757
0	34743	10393.540325012676	756
0	34747	10394.134404052545	757
0	34749	10394.653692433885	758
0	34750	10394.947839238554	757
0	34754	10396.772304212927	758
0	34755	10396.79347164078	757
0	34759	10397.726725647897	758
0	34760	10398.527759364493	757
0	34763	10400.230484039582	756
0	34767	10400.236519230331	757
0	34768	10401.94306173703	756
0	34771	10403.168322121225	755
0	34775	10403.287084523408	756
0	34777	10403.390990789122	757
0	34779	10403.454725258259	758
0	34781	10403.885818495933	759
0	34783	10404.266597553935	760
0	34784	10405.163120351046	759
0	34788	10405.171611138673	760
0	34789	10406.549043448887	759
0	34793	10408.173222328398	760
0	34794	10408.227533003188	759
0	34798	10409.484099373289	760
0	34799	10409.878745770141	759
0	34802	10411.477792997531	758
0	34806	10411.553489974133	759
0	34808	10411.700434047364	760
0	34810	10411.980896524496	761
0	34811	10413.245591894596	760
0	34815	10413.903074911095	761
0	34817	10414.142991919159	762
0	34818	10414.52400120633	761
0	34822	10414.602640748428	762
0	34824	10415.866817749056	763
0	34825	10416.499200471177	762
0	34828	10417.86315029735	761
0	34831	10419.692752269155	760
0	34835	10420.153387611924	761
0	34837	10420.29545988544	762
0	34839	10421.104130516987	763
0	34841	10421.253837775331	764
0	34842	10421.338372277899	763
0	34845	10422.693837605102	762
0	34849	10423.016030077524	763
0	34850	10423.956162768474	762
0	34853	10425.678889897151	761
0	34857	10426.2186854147	762
0	34859	10427.268782431839	763
0	34861	10427.381664279157	764
0	34862	10427.391192861891	763
0	34868	10428.008621582883	764
0	34869	10428.893847017049	763
0	34873	10429.838667738858	764
0	34875	10430.142313826692	765
0	34876	10430.578089697718	764
0	34879	10431.962283324696	763
0	34882	10433.266797841214	762
0	34886	10433.730764416674	763
0	34890	10434.826526561787	764
0	34892	10435.007191086576	765
0	34893	10435.077826672294	764
0	34897	10436.166879524646	765
0	34898	10436.523989154273	764
0	34901	10437.881065613651	763
0	34905	10438.3639432754	764
0	34906	10439.090430299812	763
0	34909	10440.660595577643	762
0	34913	10441.238204065345	763
0	34915	10441.44954762711	764
0	34917	10442.00349622302	765
0	34918	10442.122595765316	764
0	34921	10443.418155881078	763
0	34925	10443.986832538609	764
0	34928	10445.208717146949	763
0	34931	10447.097144877226	762
0	34934	10448.771548034311	761
0	34938	10449.054920664706	762
0	34940	10450.128895333571	763
0	34941	10450.296619174317	762
0	34945	10451.333036331654	763
0	34947	10451.371115768032	764
0	34949	10451.404659299257	765
0	34950	10452.04426576911	764
0	34954	10452.604825084943	765
0	34955	10453.283556641699	764
0	34959	10453.493679427379	765
0	34961	10454.528930769397	766
0	34962	10454.735919563906	765
0	34966	10456.228734115543	766
0	34967	10456.640264974223	765
0	34971	10457.217377417332	766
0	34973	10457.731700116685	767
0	34974	10458.507894857103	766
0	34978	10458.931375262835	767
0	34979	10459.995697037006	766
0	34983	10461.529567677636	767
0	34984	10461.641926019514	766
0	34988	10461.642533264271	767
0	34990	10462.502146331583	768
0	34991	10463.245721327389	767
0	34995	10463.886958108053	768
0	34997	10464.160206371364	769
0	34998	10464.910088204095	768
0	35001	10466.162913650336	767
0	35005	10466.991811077781	768
0	35006	10467.537079731995	767
0	35010	10468.358082045373	768
0	35011	10468.940148305023	767
0	35015	10469.738578211834	768
0	35016	10470.553980490999	767
0	35020	10471.425704212851	768
0	35022	10471.571308751237	769
0	35023	10472.047813585648	768
0	35027	10472.096904881243	769
0	35028	10473.894634105885	768
0	35032	10474.638352362935	769
0	35033	10475.327303216109	768
0	35037	10477.151884127663	769
0	35038	10477.224910487669	768
0	35042	10478.260472404118	769
0	35043	10478.929169909532	768
0	35047	10480.0023683611	769
0	35049	10480.003307105023	770
0	35050	10480.761612765367	769
0	35054	10481.256962540013	770
0	35055	10481.972912588964	769
0	35058	10483.851713468197	768
0	35062	10484.102967299871	769
0	35063	10485.400495306838	768
0	35067	10485.601674696491	769
0	35068	10486.928610257309	768
0	35072	10487.001174744295	769
0	35074	10487.693021805901	770
0	35076	10487.850224868599	771
0	35077	10488.262379159842	770
0	35081	10488.824103267643	771
0	35082	10489.722111050103	770
0	35085	10490.933109409798	769
0	35088	10492.764407064084	768
0	35092	10493.211811931837	769
0	35093	10494.000242391106	768
0	35097	10494.787860182641	769
0	35098	10495.402557679329	768
0	35102	10495.408924835009	769
0	35104	10495.772601823034	770
0	35106	10496.368310472558	771
0	35107	10496.723064003017	770
0	35111	10498.16234255072	771
0	35112	10498.266344714415	770
0	35116	10498.476226813004	771
0	35118	10498.687290463356	772
0	35119	10500.053107603145	771
0	35123	10501.068655831419	772
0	35124	10501.54313570491	771
0	35128	10502.949154710805	772
0	35129	10503.079727836577	771
0	35133	10503.140041354183	772
0	35134	10504.446164527042	771
0	35137	10505.932557179472	770
0	35141	10506.241772347129	771
0	35142	10507.526701587504	770
0	35146	10508.105856875685	771
0	35147	10509.153539463384	770
0	35151	10510.413735339968	771
0	35152	10510.833999796463	770
0	35156	10512.06836176645	771
0	35157	10512.077063829331	770
0	35161	10513.278369261257	771
0	35162	10513.597935135728	770
0	35166	10514.149339929984	771
0	35168	10514.223133336771	772
0	35170	10514.690807277412	773
0	35171	10515.021554988688	772
0	35177	10516.113335661082	773
0	35178	10516.228610039381	772
0	35181	10517.549229496782	771
0	35185	10518.22645051534	772
0	35186	10519.425668874261	771
0	35190	10520.465832570392	772
0	35191	10520.973388986913	771
0	35194	10522.262917757285	770
0	35197	10524.002565766563	769
0	35200	10525.484873634455	768
0	35204	10525.719962012249	769
0	35206	10526.238410902153	770
0	35207	10527.308344506723	769
0	35211	10528.70060760339	770
0	35212	10529.042810888467	769
0	35216	10529.380185638098	770
0	35218	10530.263928428307	771
0	35219	10530.527782967193	770
0	35223	10530.858694173152	771
0	35225	10530.902524413746	772
0	35227	10532.145340226176	773
0	35228	10532.201726666717	772
0	35232	10533.466221858842	773
0	35234	10533.674058868477	774
0	35235	10534.15399047981	773
0	35239	10535.881423421317	774
0	35240	10536.146555288201	773
0	35244	10537.157917132016	774
0	35246	10537.380882645457	775
0	35248	10537.706727491388	776
0	35249	10537.818926709024	775
0	35253	10538.47032490594	776
0	35254	10539.064644430084	775
0	35257	10540.31379814825	774
0	35261	10540.441626331083	775
0	35262	10541.651527776075	774
0	35266	10543.35795779611	775
0	35267	10543.537454124605	774
0	35271	10544.717474019565	775
0	35272	10545.29841208185	774
0	35276	10545.792976180455	775
0	35278	10546.557522517137	776
0	35279	10546.675711771724	775
0	35284	10548.606264487532	774
0	35288	10548.659067216568	775
0	35290	10548.683785117998	776
0	35291	10550.265623150644	775
0	35294	10552.169180619967	774
0	35298	10552.978049034196	775
0	35299	10553.641617572744	774
0	35302	10555.536268968013	773
0	35305	10556.936848175962	772
0	35308	10558.377386522543	771
0	35312	10559.150010035757	772
0	35314	10559.490794737752	773
0	35315	10559.939166040596	772
0	35318	10561.38079124919	771
0	35322	10562.06146707922	772
0	35324	10562.601336521751	773
0	35325	10563.211361349624	772
0	35329	10563.479028616005	773
0	35331	10564.191077765141	774
0	35333	10564.753505672064	775
0	35334	10565.063162675936	774
0	35338	10565.912372967302	775
0	35339	10566.741535810817	774
0	35342	10568.151084411021	773
0	35346	10569.17757925596	774
0	35347	10569.5685004302	773
0	35351	10570.429299806881	774
0	35352	10571.065823145274	773
0	35356	10572.48160327661	774
0	35357	10572.779802839149	773
0	35360	10574.006392626342	772
0	35363	10575.872394628514	771
0	35366	10577.220980620448	770
0	35370	10577.522757844215	771
0	35371	10578.618428607721	770
0	35375	10579.04969385915	771
0	35377	10579.73637547189	772
0	35378	10579.932070522446	771
0	35381	10581.397197610017	770
0	35384	10582.698436938848	769
0	35388	10583.346284473984	770
0	35389	10584.468979678925	769
0	35393	10585.50876201579	770
0	35394	10585.794328291777	769
0	35398	10586.938174303689	770
0	35399	10587.585823261801	769
0	35402	10589.012344302859	768
0	35405	10590.98561795323	767
0	35408	10592.257309756305	766
0	35412	10593.756630226859	767
0	35413	10593.799946750764	766
0	35418	10595.673361508053	765
0	35422	10595.842950195564	766
0	35423	10597.025400433567	765
0	35427	10597.340356998513	766
0	35429	10597.655562084283	767
0	35430	10598.465881692682	766
0	35434	10600.09908871861	767
0	35435	10600.27362678076	766
0	35439	10600.319323446536	767
0	35441	10601.517877630452	768
0	35443	10601.737580378012	769
0	35445	10601.945594958092	770
0	35446	10602.226315847103	769
0	35450	10603.86120585273	770
0	35451	10603.953652488132	769
0	35455	10604.806460647493	770
0	35456	10605.574254122068	769
0	35460	10606.225645186067	770
0	35461	10607.359063726728	769
0	35465	10607.767795070338	770
0	35466	10608.760258275149	769
0	35470	10609.64549689087	770
0	35472	10610.480448730517	771
0	35474	10610.55814689374	772
0	35475	10610.668140959059	771
0	35479	10610.857705876329	772
0	35480	10612.362338203629	771
0	35484	10612.457985996894	772
0	35485	10614.091331888241	771
0	35489	10614.507143840197	772
0	35491	10615.399388545432	773
0	35492	10615.694320100424	772
0	35495	10616.985953342606	771
0	35498	10618.716282838833	770
0	35502	10619.721010983156	771
0	35503	10620.392084105563	770
0	35507	10620.746225962053	771
0	35509	10620.88903931499	772
0	35510	10622.255536962551	771
0	35514	10622.37934234979	772
0	35515	10624.130526629527	771
0	35519	10624.35863114023	772
0	35521	10625.530281352007	773
0	35522	10625.700531349395	772
0	35526	10626.312212342092	773
0	35527	10626.939460162137	772
0	35531	10627.712752062888	773
0	35533	10627.947582962317	774
0	35534	10628.368656475906	773
0	35538	10629.539100564574	774
0	35539	10629.631063333963	773
0	35542	10631.011457361718	772
0	35546	10631.417483147971	773
0	35548	10631.553076376745	774
0	35550	10632.852152869301	775
0	35551	10632.96633278436	774
0	35555	10633.009409580308	775
0	35556	10634.502382817184	774
0	35559	10636.12690638124	773
0	35563	10636.167752928995	774
0	35565	10637.891981387831	775
0	35566	10637.90659004177	774
0	35570	10638.719045902269	775
0	35571	10639.156628486393	774
0	35574	10640.418664960256	773
0	35578	10640.628990528543	774
0	35579	10642.379799877172	773
0	35583	10643.848661602661	774
0	35584	10644.251999255893	773
0	35587	10645.564261893806	772
0	35590	10647.187070476514	771
0	35594	10648.273782609183	772
0	35596	10648.312927592804	773
0	35597	10648.558769474988	772
0	35601	10648.952468121061	773
0	35603	10649.087000141849	774
0	35604	10650.446856973943	773
0	35608	10650.61741233226	774
0	35610	10650.719111591735	775
0	35612	10650.74225336046	776
0	35614	10651.295866314588	777
0	35615	10652.388281244662	776
0	35618	10653.612996159558	775
0	35622	10655.058204378589	776
0	35623	10655.578383797285	775
0	35626	10657.568709249114	774
0	35630	10658.410100055059	775
0	35632	10658.567793507926	776
0	35634	10658.611692075495	777
0	35635	10658.892185797793	776
0	35639	10659.072320756352	777
0	35640	10660.491771992174	776
0	35644	10660.603502854694	777
0	35645	10662.052649680776	776
0	35649	10662.651551199345	777
0	35651	10663.055323883331	778
0	35652	10663.988928258484	777
0	35656	10664.787359414193	778
0	35657	10665.988002845524	777
0	35660	10667.32760797075	776
0	35664	10667.477452454528	777
0	35666	10667.792689634405	778
0	35667	10668.836643863721	777
0	35671	10669.127602567636	778
0	35673	10669.207776827811	779
0	35676	10670.654087265646	778
0	35680	10671.716222211787	779
0	35681	10672.556831801934	778
0	35684	10673.833332099831	777
0	35688	10673.890226071672	778
0	35690	10674.054049942988	779
0	35691	10675.274769150904	778
0	35695	10675.277390239313	779
0	35696	10676.720659237793	778
0	35700	10676.812110476548	779
0	35701	10678.113583570412	778
0	35705	10679.128771584911	779
0	35706	10679.593545907802	778
0	35710	10680.763673138783	779
0	35711	10681.379232624984	778
0	35715	10683.118837810776	779
0	35716	10683.341462255708	778
0	35719	10685.172127682782	777
0	35722	10686.460446876913	776
0	35726	10686.945071697918	777
0	35728	10687.475916318513	778
0	35729	10687.67644093956	777
0	35733	10688.883058742919	778
0	35735	10689.012889313051	779
0	35736	10689.101822205886	778
0	35740	10690.087751704281	779
0	35741	10690.669644029319	778
0	35744	10692.585131581008	777
0	35748	10693.33516572431	778
0	35749	10694.071274262733	777
0	35753	10694.434126058759	778
0	35755	10694.519568245307	779
0	35757	10694.629052419009	780
0	35760	10695.539056859232	779
0	35763	10697.296692529387	778
0	35767	10697.709466429552	779
0	35769	10697.805019854441	780
0	35770	10698.537161806292	779
0	35774	10698.682790307553	780
0	35775	10699.822015249982	779
0	35779	10701.208287640914	780
0	35780	10701.546663088604	779
0	35784	10702.697557082536	780
0	35785	10703.121164712562	779
0	35789	10703.628813118466	780
0	35791	10703.633650022484	781
0	35792	10704.572885779916	780
0	35796	10706.154062714147	781
0	35797	10706.171680973536	780
0	35801	10706.280069811298	781
0	35803	10706.808242561079	782
0	35804	10707.537995780325	781
0	35808	10708.517331976051	782
0	35809	10709.278756565107	781
0	35813	10710.537719859995	782
0	35814	10711.079552779971	781
0	35818	10711.217402178179	782
0	35819	10712.710567194848	781
0	35823	10713.186138801682	782
0	35824	10714.501402019961	781
0	35828	10714.793830240221	782
0	35829	10716.019626005991	781
0	35833	10716.394781124642	782
0	35834	10717.257038600995	781
0	35837	10719.153209164432	780
0	35841	10720.470296495449	781
0	35842	10720.526023422247	780
0	35845	10721.746360202013	779
0	35848	10723.472353054276	778
0	35852	10723.666926368879	779
0	35854	10724.709081530881	780
0	35855	10725.166869556597	779
0	35859	10725.362407689845	780
0	35861	10725.719325307257	781
0	35863	10725.758733583629	782
0	35864	10727.039891840956	781
0	35868	10728.790605137911	782
0	35869	10728.966869615643	781
0	35873	10729.151200526717	782
0	35875	10729.668930632653	783
0	35877	10730.276253556091	784
0	35878	10730.478020042619	783
0	35882	10731.070960992655	784
0	35884	10731.750820015295	785
0	35885	10731.952804135597	784
0	35889	10732.752365922086	785
0	35891	10733.272190371412	786
0	35892	10733.739274475417	785
0	35896	10734.063732439365	786
0	35897	10735.177363800882	785
0	35901	10735.729823803558	786
0	35902	10736.953167396291	785
0	35906	10737.356012994406	786
0	35908	10737.694374092822	787
0	35909	10738.583382731183	786
0	35912	10740.049868669613	785
0	35915	10741.976347908444	784
0	35918	10743.521494585715	783
0	35922	10744.074001383773	784
0	35924	10744.452449366229	785
0	35925	10745.286848827891	784
0	35928	10747.187549981169	783
0	35932	10748.666652928907	784
0	35933	10748.766457241095	783
0	35937	10748.830740980151	784
0	35938	10750.478656842999	783
0	35942	10750.704390056004	784
0	35943	10751.707579852708	783
0	35947	10752.04456525546	784
0	35949	10752.413883861049	785
0	35951	10753.263487562365	786
0	35952	10753.345876179889	785
0	35955	10754.631063728661	784
0	35959	10755.232084187376	785
0	35961	10755.430638540857	786
0	35962	10756.480284451202	785
0	35965	10757.686151384257	784
0	35969	10757.804588287567	785
0	35971	10758.355095096549	786
0	35973	10758.594666707582	787
0	35975	10758.938932845005	788
0	35976	10759.280094896138	787
0	35979	10760.881482125514	786
0	35983	10761.656057337656	787
0	35984	10762.187279247002	786
0	35988	10763.191278048241	787
0	35990	10763.521140862553	788
0	35991	10764.136097990603	787
0	35995	10764.521310005461	788
0	35996	10765.62020703058	787
0	35999	10767.613485076346	786
0	36003	10767.730556010577	787
0	36005	10768.305973102143	788
0	36006	10769.175884457745	787
0	36010	10770.006007718562	788
0	36011	10770.394281591729	787
0	36015	10771.903913714996	788
0	36016	10771.997383820892	787
0	36019	10773.416219658286	786
0	36023	10774.203643781662	787
0	36025	10774.639770797485	788
0	36026	10774.972737637044	787
0	36029	10776.524574160644	786
0	36033	10777.216787211701	787
0	36035	10777.776796957543	788
0	36036	10778.305715188452	787
0	36040	10779.674875580815	788
0	36041	10779.930727861145	787
0	36045	10780.719929914096	788
0	36046	10781.883168838055	787
0	36050	10782.110342196888	788
0	36052	10782.132503398946	789
0	36054	10782.153310571228	790
0	36056	10782.990902951624	791
0	36057	10783.358127757789	790
0	36061	10783.752322014607	791
0	36062	10784.590561799215	790
0	36066	10785.619867057789	791
0	36067	10786.271664702216	790
0	36071	10786.280828665361	791
0	36072	10787.792272963444	790
0	36076	10788.710547724425	791
0	36077	10789.602030997792	790
0	36081	10789.71930380396	791
0	36082	10790.955583519743	790
0	36085	10792.546960547821	789
0	36089	10793.901110252574	790
0	36091	10794.034185224249	791
0	36092	10794.48975195072	790
0	36096	10795.171655369082	791
0	36097	10795.777219615759	790
0	36101	10796.001059400685	791
0	36102	10797.498670781286	790
0	36106	10798.269559164983	791
0	36107	10799.350642555089	790
0	36111	10800.268231688644	791
0	36113	10800.47189314091	792
0	36114	10801.157379589484	791
0	36118	10801.22338467487	792
0	36119	10802.685261700743	791
0	36123	10803.140385719085	792
0	36124	10804.320230149173	791
0	36127	10805.705764908784	790
0	36131	10805.876138434352	791
0	36132	10807.202408668653	790
0	36136	10808.748707691055	791
0	36139	10809.164947397889	790
0	36143	10810.130154926281	791
0	36144	10810.761440391907	790
0	36148	10810.992423937757	791
0	36150	10811.340133540891	792
0	36152	10812.50395571515	793
0	36153	10812.578440171549	792
0	36156	10814.190836987713	791
0	36160	10815.403673148533	792
0	36161	10815.5627838806	791
0	36164	10817.242773271234	790
0	36168	10818.75516341665	791
0	36171	10819.146992279099	790
0	36175	10819.967982686795	791
0	36177	10820.289563410129	792
0	36178	10820.443669135378	791
0	36183	10821.683219530874	790
0	36187	10822.230605517062	791
0	36189	10822.431203074729	792
0	36190	10823.590145847083	791
0	36194	10823.690822639466	792
0	36195	10825.057273233005	791
0	36199	10826.957275763761	792
0	36200	10826.992907071741	791
0	36203	10828.686551668936	790
0	36207	10830.141736520335	791
0	36209	10830.488653460788	792
0	36210	10830.521927310967	791
0	36213	10832.142140098916	790
0	36217	10832.345101664292	791
0	36219	10832.924351956355	792
0	36221	10833.226465117294	793
0	36222	10834.114666963623	792
0	36228	10835.448620672979	793
0	36229	10835.530710366995	792
0	36233	10835.768657212926	793
0	36235	10837.027019050168	794
0	36236	10837.136171566949	793
0	36239	10838.466248701581	792
0	36243	10838.792731006966	793
0	36245	10839.938292911159	794
0	36246	10839.977143937976	793
0	36250	10840.100355767049	794
0	36251	10841.444418139079	793
0	36255	10841.526491089591	794
0	36258	10842.828046299213	793
0	36262	10843.88413830397	794
0	36264	10844.129151895619	795
0	36265	10844.584194646658	794
0	36269	10845.841887599446	795
0	36270	10846.342920591192	794
0	36274	10846.379206341061	795
0	36275	10847.861898598516	794
0	36279	10848.224803029679	795
0	36281	10848.53442261061	796
0	36282	10849.618219425225	795
0	36286	10849.785696561229	796
0	36287	10851.418338435957	795
0	36291	10852.517133846543	796
0	36292	10852.641990249859	795
0	36295	10854.04400898374	794
0	36299	10854.504041887187	795
0	36300	10855.962246265703	794
0	36304	10856.05708819732	795
0	36305	10857.518546940454	794
0	36309	10857.718791256351	795
0	36311	10857.782245487584	796
0	36313	10858.461517189648	797
0	36314	10859.159490498037	796
0	36317	10861.055688855865	795
0	36321	10861.876118937633	796
0	36323	10862.40470214321	797
0	36324	10862.449120818333	796
0	36328	10863.145345506822	797
0	36329	10864.126583280669	796
0	36333	10864.652448376248	797
0	36334	10865.515892083825	796
0	36340	10866.38343428431	797
0	36342	10866.824633386088	798
0	36343	10866.850904141994	797
0	36347	10867.05007075488	798
0	36348	10868.636600506561	797
0	36351	10870.132105383346	796
0	36355	10871.012160320318	797
0	36357	10871.792200716282	798
0	36358	10872.056381603027	797
0	36362	10872.826682309981	798
0	36364	10873.152807448333	799
0	36366	10873.587014142053	800
0	36367	10873.759051052736	799
0	36371	10874.68758535564	800
0	36372	10875.184696333924	799
0	36376	10875.336975159522	800
0	36379	10877.139891944335	799
0	36383	10877.644121912304	800
0	36384	10878.474534261667	799
0	36387	10879.853101806224	798
0	36391	10881.442497244217	799
0	36392	10881.466420614042	798
0	36395	10883.201857057281	797
0	36399	10883.675439483308	798
0	36401	10884.530822084864	799
0	36403	10884.595469378435	800
0	36404	10884.988351861455	799
0	36408	10885.157469867343	800
0	36409	10886.607142329842	799
0	36413	10887.288635034455	800
0	36414	10888.302539164268	799
0	36417	10889.84651945445	798
0	36421	10889.997594622308	799
0	36422	10891.355953650989	798
0	36426	10892.855042758383	799
0	36427	10892.890996615097	798
0	36431	10893.343102239611	799
0	36432	10894.225883147374	798
0	36435	10895.544480859742	797
0	36439	10895.882854714555	798
0	36441	10896.307760266463	799
0	36443	10896.710218110943	800
0	36445	10896.710778021656	801
0	36446	10896.836990289085	800
0	36452	10897.309799229694	801
0	36453	10898.434161149778	800
0	36456	10900.225059202567	799
0	36460	10901.397179287387	800
0	36461	10901.660670057938	799
0	36465	10902.116040887063	800
0	36467	10902.787701504667	801
0	36468	10903.39223429437	800
0	36472	10903.983471932964	801
0	36473	10904.794431719624	800
0	36477	10905.704065063532	801
0	36478	10906.735552034408	800
0	36483	10908.31948688782	799
0	36489	10908.926593785532	800
0	36490	10910.241124182261	799
0	36494	10911.184923713293	800
0	36495	10912.161134024403	799
0	36498	10914.107699353873	798
0	36501	10915.951842552862	797
0	36505	10916.884240955075	798
0	36506	10917.638572109184	797
0	36510	10918.087679809365	798
0	36512	10918.571695642129	799
0	36513	10919.212523623808	798
0	36516	10920.663043246857	797
0	36520	10921.492277311953	798
0	36522	10921.62085982602	799
0	36523	10922.535856789417	798
0	36526	10924.054141712255	797
0	36529	10925.549572019718	796
0	36533	10925.572121540814	797
0	36535	10925.709879635686	798
0	36536	10927.243774149075	797
0	36540	10927.272682958165	798
0	36542	10927.448157963152	799
0	36544	10927.831363975237	800
0	36546	10928.166576301991	801
0	36548	10928.185222599864	802
0	36550	10928.346791949806	803
0	36552	10928.418004618486	804
0	36554	10929.167375534807	805
0	36555	10929.200935271263	804
0	36559	10929.207043323157	805
0	36561	10930.79409915832	806
0	36562	10931.172341687672	805
0	36566	10931.255929363107	806
0	36568	10931.814674327124	807
0	36569	10932.895495260202	806
0	36573	10933.331301908871	807
0	36574	10934.673868471452	806
0	36577	10936.555745386959	805
0	36580	10937.970883003131	804
0	36584	10938.319241798946	805
0	36585	10939.881694414348	804
0	36588	10941.453986090489	803
0	36591	10942.92617655962	802
0	36595	10942.993260543413	803
0	36597	10943.046552025241	804
0	36598	10944.525928422504	803
0	36602	10944.897324761968	804
0	36603	10946.013594913551	803
0	36606	10947.88295774448	802
0	36610	10947.994654337838	803
0	36613	10949.763334269517	802
0	36617	10951.542864986216	803
0	36618	10951.553097932854	802
0	36622	10951.662395051871	803
0	36624	10951.811679427268	804
0	36625	10953.156123333679	803
0	36629	10953.768983100444	804
0	36630	10954.685858798654	803
0	36634	10954.858256786296	804
0	36635	10956.326689328694	803
0	36639	10957.538004120893	804
0	36640	10958.148735698381	803
0	36644	10959.153180948873	804
0	36645	10959.707205833563	803
0	36649	10960.238796754199	804
0	36651	10960.5947321103	805
0	36652	10961.243868811497	804
0	36656	10961.795399429953	805
0	36657	10963.167274602385	804
0	36661	10963.931438869563	805
0	36662	10965.008267663115	804
0	36666	10965.370360937875	805
0	36667	10966.723426615888	804
0	36671	10967.851698937724	805
0	36672	10968.157274465332	804
0	36676	10968.168144545016	805
0	36677	10969.890909620071	804
0	36681	10970.372848420662	805
0	36683	10971.158034908505	806
0	36684	10971.712369160237	805
0	36689	10973.642890661279	804
0	36693	10974.24076482499	805
0	36694	10975.232078662584	804
0	36698	10975.429101914171	805
0	36699	10976.926266687619	804
0	36702	10978.175606155092	803
0	36705	10980.036769662308	802
0	36709	10980.30296867085	803
0	36711	10980.480699408299	804
0	36713	10981.230882383441	805
0	36714	10981.995819944585	804
0	36718	10982.206520686047	805
0	36719	10983.728883251617	804
0	36723	10984.740494719301	805
0	36724	10985.22995017867	804
0	36728	10985.490192732693	805
0	36730	10985.613470246864	806
0	36732	10986.134216868773	807
0	36733	10987.081996729294	806
0	36736	10988.727710548485	805
0	36739	10990.181935854884	804
0	36743	10990.81753537581	805
0	36744	10991.524507923121	804
0	36748	10993.226746774387	805
0	36749	10993.423929825681	804
0	36752	10995.087342570978	803
0	36756	10995.249014976539	804
0	36758	10995.251537049331	805
0	36760	10995.776607247938	806
0	36761	10996.582436206075	805
0	36765	10997.62754810896	806
0	36766	10997.82899625122	805
0	36770	10997.865496799441	806
0	36772	10997.881188947423	807
0	36773	10999.206118598649	806
0	36777	11000.055532745796	807
0	36778	11000.934663145313	806
0	36781	11002.399307605693	805
0	36784	11004.349774923244	804
0	36788	11005.312388733955	805
0	36790	11005.429968085711	806
0	36791	11005.883981471018	805
0	36795	11006.749392656593	806
0	36796	11007.792562477545	805
0	36799	11009.564656441168	804
0	36803	11009.699371691048	805
0	36807	11010.760206799794	806
0	36808	11011.314460427941	805
0	36811	11013.046796778285	804
0	36815	11013.357899104955	805
0	36816	11014.555960930021	804
0	36819	11016.297315384889	803
0	36822	11017.574501740629	802
0	36826	11018.002574050845	803
0	36828	11018.97020861041	804
0	36829	11018.999217438022	803
0	36832	11020.470749594527	802
0	36836	11021.009562367942	803
0	36837	11021.836276617157	802
0	36841	11022.267167703708	803
0	36843	11023.127799827236	804
0	36844	11023.635679072025	803
0	36848	11024.573991595741	804
0	36849	11025.54961499616	803
0	36853	11025.862123953209	804
0	36855	11026.174932579325	805
0	36856	11027.20609345145	804
0	36860	11027.235137406241	805
0	36862	11028.61825730826	806
0	36863	11028.643625026266	805
0	36866	11029.989505355689	804
0	36870	11030.488416073612	805
0	36872	11031.735436890133	806
0	36874	11031.851226352785	807
0	36875	11031.962873685058	806
0	36879	11032.358373578946	807
0	36881	11032.549467329268	808
0	36885	11032.846951079376	809
0	36886	11033.420128920372	808
0	36890	11033.866787470221	809
0	36892	11033.912708325525	810
0	36893	11035.107483944553	809
0	36897	11035.874409697126	810
0	36898	11036.349844459514	809
0	36902	11036.91886940063	810
0	36903	11038.040503567527	809
0	36907	11039.231966123921	810
0	36908	11040.030275018024	809
0	36912	11041.138231451537	810
0	36913	11041.582213219511	809
0	36917	11042.133258927969	810
0	36919	11043.488357616338	811
0	36920	11043.506543233315	810
0	36923	11045.030164498719	809
0	36927	11046.77208613171	810
0	36928	11046.813125898572	809
0	36932	11047.20843686063	810
0	36934	11047.505620799757	811
0	36935	11048.489666713285	810
0	36938	11050.026632639835	809
0	36942	11051.073241628746	810
0	36943	11051.466807051259	809
0	36946	11052.872148917313	808
0	36952	11053.888266252802	809
0	36954	11054.067631299746	810
0	36956	11054.347804993091	811
0	36957	11054.515088649164	810
0	36961	11055.87659466174	811
0	36962	11056.013488261844	810
0	36966	11056.626849364571	811
0	36968	11057.341438091777	812
0	36969	11057.472470371681	811
0	36973	11058.307476921851	812
0	36974	11058.767654477688	811
0	36977	11060.396546095679	810
0	36981	11060.811574034912	811
0	36983	11061.058474303073	812
0	36984	11062.080385883036	811
0	36988	11062.961217174028	812
0	36989	11063.736057920637	811
0	36993	11063.897281818847	812
0	36995	11065.122469409459	813
0	36996	11065.394334918702	812
0	36999	11067.131091672996	811
0	37003	11067.896579206914	812
0	37004	11068.756706306593	811
0	37007	11070.230721204983	810
0	37012	11072.142250952193	809
0	37016	11072.951559594148	810
0	37017	11073.689126907544	809
0	37021	11074.128153569946	810
0	37023	11074.64540489808	811
0	37024	11075.478988028945	810
0	37028	11076.595413631372	811
0	37029	11077.354683763416	810
0	37033	11077.365228016808	811
0	37035	11077.470573620459	812
0	37037	11078.337833926416	813
0	37039	11078.582048938233	814
0	37040	11078.963867685453	813
0	37044	11079.020941059034	814
0	37045	11080.931041858227	813
0	37048	11082.779315167733	812
0	37051	11084.508886920356	811
0	37055	11085.232604960483	812
0	37056	11086.028918513723	811
0	37060	11086.413890152423	812
0	37062	11086.88475264061	813
0	37064	11087.057966540623	814
0	37065	11087.958727915839	813
0	37069	11088.600087297973	814
0	37070	11089.553081738271	813
0	37073	11091.532605763778	812
0	37077	11092.75720394434	813
0	37078	11092.83836679931	812
0	37081	11094.06106467291	811
0	37085	11094.469770253439	812
0	37087	11094.496296819595	813
0	37088	11095.470536042072	812
0	37092	11096.291516475466	813
0	37093	11097.320819148488	812
0	37096	11099.155652021497	811
0	37100	11099.174791164155	812
0	37102	11100.472846084342	813
0	37103	11101.087730918891	812
0	37107	11101.774332610858	813
0	37109	11101.918229916198	814
0	37110	11102.897407101906	813
0	37114	11103.106156773101	814
0	37116	11103.357576345152	815
0	37118	11103.751879778729	816
0	37119	11104.31458823911	815
0	37123	11105.525504107677	816
0	37124	11105.610660020142	815
0	37128	11107.295239804695	816
0	37129	11107.4191775304	815
0	37133	11108.510939720864	816
0	37134	11108.789629886925	815
0	37138	11108.845109794248	816
0	37139	11110.709165104359	815
0	37143	11111.202941730546	816
0	37145	11111.779955162669	817
0	37146	11112.640985885888	816
0	37149	11114.223495516807	815
0	37153	11114.555176664205	816
0	37155	11115.095156469573	817
0	37156	11115.779417464763	816
0	37160	11116.531995807409	817
0	37161	11117.483753597058	816
0	37165	11117.849675886304	817
0	37166	11118.979521334424	816
0	37170	11120.052283253071	817
0	37171	11120.27013404823	816
0	37175	11120.975612131742	817
0	37177	11121.027678027555	818
0	37178	11121.97776748973	817
0	37182	11122.722091516429	818
0	37184	11123.089365364942	819
0	37185	11123.433773145518	818
0	37189	11123.879787236328	819
0	37191	11123.895333562744	820
0	37193	11124.476137345204	821
0	37194	11124.776831555246	820
0	37197	11126.128728856957	819
0	37201	11126.241223901758	820
0	37203	11127.438524918095	821
0	37204	11127.750540485112	820
0	37207	11129.665100898286	819
0	37211	11129.746633293136	820
0	37213	11129.892946040446	821
0	37215	11131.528311645657	822
0	37216	11131.610183459213	821
0	37220	11133.014621689847	822
0	37221	11133.130621686084	821
0	37225	11133.188304135935	822
0	37227	11133.888472919397	823
0	37228	11134.742902266113	822
0	37231	11135.996099511227	821
0	37235	11136.891129344242	822
0	37237	11137.059420383985	823
0	37239	11137.1163424853	824
0	37240	11137.903465763918	823
0	37243	11139.372776884093	822
0	37247	11140.653360673291	823
0	37248	11140.890859516217	822
0	37252	11141.485171757581	823
0	37253	11142.346057973309	822
0	37259	11143.157130213066	823
0	37260	11144.092253740943	822
0	37264	11144.12318330521	823
0	37266	11144.876384451999	824
0	37268	11145.042713270695	825
0	37269	11145.491774990662	824
0	37273	11145.552827610393	825
0	37274	11146.704214121467	824
0	37278	11147.093377898234	825
0	37280	11147.215358485585	826
0	37281	11147.913357510297	825
0	37285	11148.738492036564	826
0	37286	11149.268750081836	825
0	37290	11149.760524520847	826
0	37291	11151.08571221239	825
0	37295	11152.664197570519	826
0	37296	11152.874313567645	825
0	37300	11153.005730684884	826
0	37301	11154.330277041785	825
0	37305	11154.723877331617	826
0	37306	11156.04170286066	825
0	37309	11157.981967047482	824
0	37313	11158.088922732027	825
0	37315	11158.218254151479	826
0	37317	11158.351182729464	827
0	37318	11159.679032276637	826
0	37322	11160.096922040591	827
0	37323	11161.174289709955	826
0	37326	11162.909402331963	825
0	37330	11163.442386488986	826
0	37332	11164.17408941475	827
0	37333	11164.44272091712	826
0	37336	11166.272709201902	825
0	37340	11166.675139221067	826
0	37341	11168.02926873143	825
0	37345	11168.121462772353	826
0	37347	11168.652429945604	827
0	37349	11168.702000944794	828
0	37351	11169.37315498766	829
0	37352	11169.449863797307	828
0	37356	11170.204150800251	829
0	37358	11171.194119350699	830
0	37359	11171.260101431862	829
0	37362	11172.86162312913	828
0	37366	11173.107047786546	829
0	37367	11174.687265504592	828
0	37371	11175.808876524628	829
0	37372	11176.323181278326	828
0	37376	11176.341502529232	829
0	37378	11177.255367548229	830
0	37379	11177.949138823033	829
0	37383	11178.394603533631	830
0	37384	11179.189691771635	829
0	37387	11180.540075409853	828
0	37391	11181.734921200176	829
0	37392	11182.288378626363	828
0	37396	11182.749067617134	829
0	37398	11183.911350694737	830
0	37399	11183.94863880209	829
0	37403	11184.369095095405	830
0	37404	11185.181090140225	829
0	37408	11186.38670115542	830
0	37409	11186.683200361089	829
0	37413	11187.097472329691	830
0	37414	11188.053372871571	829
0	37418	11188.203388430411	830
0	37419	11189.781944869154	829
0	37422	11191.220790509016	828
0	37426	11191.645249050014	829
0	37428	11191.860729230238	830
0	37429	11192.657993383215	829
0	37433	11192.668530941403	830
0	37435	11193.988755840698	831
0	37436	11194.657483758473	830
0	37440	11195.140691389278	831
0	37442	11195.213472862377	832
0	37445	11196.4580084278	831
0	37448	11197.856029057199	830
0	37452	11197.858843644606	831
0	37454	11198.268920982938	832
0	37456	11198.949483295576	833
0	37457	11199.610350373456	832
0	37461	11199.979940187234	833
0	37462	11201.609652661787	832
0	37466	11202.123400209171	833
0	37467	11203.517159642348	832
0	37471	11204.927968503581	833
0	37472	11205.340833487058	832
0	37476	11206.304468302227	833
0	37477	11207.042950746858	832
0	37481	11207.400874674264	833
0	37482	11208.950080850416	832
0	37486	11210.254325704444	833
0	37487	11210.285924128511	832
0	37491	11210.8516976719	833
0	37492	11212.204425970533	832
0	37495	11213.881030725383	831
0	37499	11214.036106291349	832
0	37500	11215.409117674895	831
0	37503	11217.238618565232	830
0	37506	11218.730436820791	829
0	37510	11219.14050081338	830
0	37512	11220.290735940893	831
0	37513	11220.376605411128	830
0	37517	11221.815887839892	831
0	37518	11222.043618686379	830
0	37521	11223.282433330708	829
0	37524	11225.004005744935	828
0	37528	11226.519810358372	829
0	37529	11226.76961445927	828
0	37533	11227.797859767567	829
0	37534	11228.733773127267	828
0	37538	11229.666528072355	829
0	37539	11230.11372737016	828
0	37543	11231.588478903456	829
0	37545	11231.764103785921	830
0	37546	11231.80637573942	829
0	37550	11231.996676256543	830
0	37551	11233.730252210306	829
0	37555	11233.889132792969	830
0	37557	11234.308313637709	831
0	37559	11234.603347695089	832
0	37560	11235.600449466402	831
0	37564	11236.218820593482	832
0	37567	11237.551795659283	831
0	37570	11239.095382680626	830
0	37574	11239.88070919638	831
0	37575	11240.54314117513	830
0	37579	11240.993755516725	831
0	37581	11241.391475825025	832
0	37582	11241.847567506017	831
0	37585	11243.312705328384	830
0	37588	11244.570845666969	829
0	37592	11244.985996555481	830
0	37594	11245.10197118266	831
0	37596	11246.303866788013	832
0	37597	11246.485339130157	831
0	37601	11247.492881549563	832
0	37603	11247.661875174191	833
0	37604	11248.020651626096	832
0	37608	11248.968605211592	833
0	37610	11249.822142454112	834
0	37611	11249.895564643175	833
0	37615	11250.202518159139	834
0	37617	11250.286984443554	835
0	37618	11251.426309447058	834
0	37621	11253.111639600128	833
0	37625	11254.150121908956	834
0	37626	11254.41020332358	833
0	37630	11254.814740315431	834
0	37632	11254.859583082392	835
0	37633	11256.278853523053	834
0	37639	11257.002081271575	835
0	37640	11257.797363887422	834
0	37643	11259.018643687546	833
0	37647	11260.070490937459	834
0	37648	11260.771690703064	833
0	37652	11261.120171430887	834
0	37653	11262.03997800301	833
0	37657	11262.685487688103	834
0	37658	11263.484754353084	833
0	37662	11264.193691950468	834
0	37664	11264.284298587657	835
0	37665	11264.693676530637	834
0	37668	11266.017738805592	833
0	37671	11267.580769036591	832
0	37675	11268.103172212968	833
0	37677	11268.466469800788	834
0	37680	11269.407980530962	833
0	37684	11271.131523908905	834
0	37685	11271.24912065535	833
0	37689	11272.098286577409	834
0	37690	11272.589621783487	833
0	37694	11272.830788618927	834
0	37696	11274.195194622211	835
0	37697	11274.498881527103	834
0	37700	11276.401228065483	833
0	37704	11276.883103997344	834
0	37706	11277.014651323314	835
0	37708	11277.929405784144	836
0	37709	11278.272547766819	835
0	37713	11278.621384489101	836
0	37714	11279.784573170237	835
0	37717	11281.612476931952	834
0	37720	11283.416803267106	833
0	37723	11285.052700575135	832
0	37727	11285.352691555244	833
0	37729	11286.65386383437	834
0	37730	11286.778936673581	833
0	37734	11287.624158362738	834
0	37736	11288.220866461498	835
0	37737	11288.400689174301	834
0	37741	11289.977389042845	835
0	37742	11290.310532634958	834
0	37746	11291.298708215534	835
0	37747	11291.946336891755	834
0	37750	11293.270449719272	833
0	37753	11294.804407927088	832
0	37756	11296.684750310957	831
0	37760	11296.760718080065	832
0	37762	11296.852338434435	833
0	37764	11297.20345175515	834
0	37766	11298.579964906942	835
0	37767	11298.598323832891	834
0	37771	11299.332319809724	835
0	37773	11300.085733430143	836
0	37774	11300.431886559418	835
0	37777	11301.823530355907	834
0	37780	11303.390214723042	833
0	37784	11303.875623179217	834
0	37785	11305.264180534213	833
0	37789	11306.711061213068	834
0	37790	11307.135522567175	833
0	37794	11307.45223765339	834
0	37796	11308.537527850706	835
0	37798	11308.989162779457	836
0	37799	11309.03190402358	835
0	37803	11309.788273071577	836
0	37804	11310.668218953043	835
0	37807	11312.534361656077	834
0	37811	11313.125081589583	835
0	37813	11313.169071384159	836
0	37814	11313.791616759144	835
0	37817	11315.336350512944	834
0	37820	11317.183255675129	833
0	37824	11317.514345675	834
0	37825	11318.58354161556	833
0	37828	11319.821238647095	832
0	37832	11319.987027071728	833
0	37834	11320.35829935518	834
0	37836	11320.468159123137	835
0	37837	11321.039004572547	834
0	37841	11321.147347888268	835
0	37842	11322.684987206451	834
0	37845	11323.951148749209	833
0	37849	11325.514933795966	834
0	37850	11325.598003324001	833
0	37854	11326.83793760814	834
0	37855	11327.117960554055	833
0	37859	11327.653138866248	834
0	37861	11328.357772941788	835
0	37862	11328.497471873528	834
0	37866	11328.545186925934	835
0	37868	11330.089659178125	836
0	37869	11330.383674350447	835
0	37872	11331.918542084723	834
0	37876	11332.579834478405	835
0	37878	11333.010425857938	836
0	37879	11333.51581124968	835
0	37882	11334.904096231862	834
0	37886	11335.775361471439	835
0	37888	11335.809139526271	836
0	37890	11336.125824113659	837
0	37891	11336.623239549316	836
0	37894	11337.932006217792	835
0	37898	11338.033232392369	836
0	37899	11339.610216088101	835
0	37903	11340.416043416904	836
0	37904	11341.130910158224	835
0	37907	11342.85671435713	834
0	37911	11343.47921215828	835
0	37913	11343.833958007425	836
0	37914	11344.612604044072	835
0	37918	11344.972823855871	836
0	37920	11345.493619246558	837
0	37921	11345.877249653145	836
0	37925	11347.268020229282	837
0	37926	11347.834017499789	836
0	37930	11348.014744098442	837
0	37932	11348.530723293709	838
0	37933	11349.114649516783	837
0	37936	11350.55875696472	836
0	37940	11350.614847677708	837
0	37942	11352.12797043252	838
0	37943	11352.372588937237	837
0	37947	11353.492633160284	838
0	37948	11353.748506656914	837
0	37952	11353.806897410377	838
0	37953	11355.359373198516	837
0	37956	11356.64972511816	836
0	37960	11358.479426788023	837
0	37961	11358.617989098347	836
0	37964	11359.915982643581	835
0	37968	11360.134478205556	836
0	37969	11361.602711168556	835
0	37973	11361.669468765842	836
0	37975	11361.947549475304	837
0	37977	11362.818629612213	838
0	37978	11363.361334232679	837
0	37982	11364.498143219961	838
0	37983	11365.138899554005	837
0	37987	11365.293990811062	838
0	37989	11366.235726031164	839
0	37990	11366.758276739968	838
0	37994	11367.17144383288	839
0	37995	11368.441458881153	838
0	37999	11369.066955117349	839
0	38000	11370.138180793887	838
0	38004	11371.422007730497	839
0	38005	11371.724667093968	838
0	38009	11372.03026478011	839
0	38010	11373.569705266384	838
0	38014	11374.069639116328	839
0	38015	11375.132305434225	838
0	38019	11375.490570482909	839
0	38020	11377.129509620061	838
0	38023	11378.591042685201	837
0	38026	11380.549272400578	836
0	38030	11380.924575593605	837
0	38033	11381.772353002121	836
0	38037	11382.303896436812	837
0	38038	11382.999039904838	836
0	38042	11383.612450343042	837
0	38043	11384.261520507251	836
0	38047	11384.979296440679	837
0	38049	11385.178667610546	838
0	38051	11385.546016614359	839
0	38052	11385.600887500187	838
0	38055	11387.288996166801	837
0	38059	11388.371947697409	838
0	38061	11388.622243903554	839
0	38062	11388.724934797985	838
0	38065	11390.485922183161	837
0	38069	11391.655323785093	838
0	38070	11391.746271463921	837
0	38074	11392.316903743903	838
0	38076	11392.865780549789	839
0	38077	11393.669762715948	838
0	38081	11394.41999560631	839
0	38082	11395.626127955568	838
0	38086	11395.766280887321	839
0	38087	11396.924177174893	838
0	38091	11397.741543838225	839
0	38092	11398.88772991306	838
0	38096	11399.482046223948	839
0	38097	11400.385300664854	838
0	38101	11400.914460570057	839
0	38102	11402.292132187512	838
0	38106	11402.365234727523	839
0	38107	11403.790123429213	838
0	38111	11404.429721593278	839
0	38112	11405.60123131058	838
0	38116	11406.072516419813	839
0	38117	11407.340806284424	838
0	38121	11408.098929700771	839
0	38122	11409.018307890061	838
0	38126	11409.080279259764	839
0	38131	11410.295679367024	838
0	38134	11412.097807037334	837
0	38137	11413.771468802976	836
0	38141	11414.531228262194	837
0	38142	11415.27160749274	836
0	38146	11417.02484460295	837
0	38147	11417.118774627398	836
0	38151	11417.514568387455	837
0	38153	11418.400206738857	838
0	38155	11418.90571366366	839
0	38156	11419.063297180894	838
0	38160	11419.8485895898	839
0	38161	11420.350859551939	838
0	38165	11420.675967285732	839
0	38166	11421.686327758307	838
0	38170	11422.411731877443	839
0	38172	11422.920950815619	840
0	38174	11423.01509605422	841
0	38175	11423.045985191005	840
0	38179	11423.414613980316	841
0	38180	11424.42372255257	840
0	38184	11424.493843495149	841
0	38186	11424.507464828945	842
0	38187	11425.838185201088	841
0	38190	11427.494280276882	840
0	38194	11427.964530021731	841
0	38196	11428.53743235682	842
0	38197	11429.212609318892	841
0	38200	11431.044794077116	840
0	38203	11432.764990218977	839
0	38207	11432.96145359297	840
0	38209	11433.347217527596	841
0	38211	11433.652299679612	842
0	38212	11434.2556317371	841
0	38215	11436.005233938867	840
0	38219	11436.41812778511	841
0	38221	11436.610553014044	842
0	38222	11437.680737073594	841
0	38226	11438.829459441016	842
0	38227	11439.225865901136	841
0	38231	11440.045162704852	842
0	38232	11440.774349407912	841
0	38235	11442.042455910207	840
0	38239	11443.294691971449	841
0	38240	11443.931089769365	840
0	38243	11445.865257587159	839
0	38247	11447.359822260065	840
0	38248	11447.396828686507	839
0	38252	11447.446590723053	840
0	38253	11449.02385154354	839
0	38257	11449.118731659169	840
0	38258	11450.756313274303	839
0	38262	11450.845625992675	840
0	38264	11451.439767966967	841
0	38266	11451.75912232616	842
0	38267	11452.238918406764	841
0	38270	11453.477186606886	840
0	38274	11454.44373754013	841
0	38275	11454.762309404152	840
0	38280	11456.336854799526	839
0	38284	11456.940670172094	840
0	38286	11457.279412660555	841
0	38287	11457.932198552104	840
0	38291	11458.564181085973	841
0	38292	11459.740801673444	840
0	38296	11460.645641944674	841
0	38298	11461.068117858167	842
0	38299	11461.106226462746	841
0	38302	11462.44213870565	840
0	38305	11463.912296959446	839
0	38309	11463.986119642508	840
0	38311	11465.251947410148	841
0	38312	11465.301811712855	840
0	38316	11465.3898882999	841
0	38318	11466.450841933974	842
0	38320	11466.740001007643	843
0	38322	11467.24534788558	844
0	38323	11467.250375976847	843
0	38327	11467.463133783862	844
0	38328	11468.651472324939	843
0	38332	11468.675525640613	844
0	38334	11469.688366119278	845
0	38335	11470.063409476043	844
0	38338	11471.358107533739	843
0	38342	11472.192595735182	844
0	38343	11472.650288433456	843
0	38346	11473.949825479151	842
0	38350	11474.670438515243	843
0	38351	11475.461758006239	842
0	38355	11476.244416254237	843
0	38357	11476.753608892456	844
0	38358	11476.858581602262	843
0	38362	11476.968484560414	844
0	38364	11477.490375751851	845
0	38365	11478.352696301104	844
0	38368	11480.17176602731	843
0	38372	11480.412078638364	844
0	38373	11481.830889511169	843
0	38376	11483.301929609538	842
0	38380	11483.725832431818	843
0	38381	11485.12947415641	842
0	38384	11486.743605238632	841
0	38388	11487.937131270372	842
0	38389	11487.971859903508	841
0	38393	11488.267000246013	842
0	38394	11489.277274179147	841
0	38397	11490.933129045242	840
0	38401	11491.072240242166	841
0	38402	11492.300219165222	840
0	38405	11493.98677241473	839
0	38409	11494.671982298649	840
0	38410	11495.891410079845	839
0	38414	11496.313837300695	840
0	38416	11497.616972195358	841
0	38418	11497.72546038642	842
0	38419	11497.821703422875	841
0	38423	11498.798503103388	842
0	38425	11499.13499106848	843
0	38426	11499.552230250523	842
0	38430	11500.424382292752	843
0	38432	11500.506623243552	844
0	38433	11501.35475428129	843
0	38437	11501.375036687958	844
0	38439	11501.922426288999	845
0	38441	11502.724921278487	846
0	38442	11502.730346650317	845
0	38446	11502.740146993252	846
0	38447	11503.957137247234	845
0	38451	11505.54288249477	846
0	38452	11505.879976077809	845
0	38455	11507.0859062635	844
0	38458	11508.937319066621	843
0	38462	11509.775749929111	844
0	38464	11509.970082334838	845
0	38465	11510.267948623061	844
0	38469	11511.286593223589	845
0	38471	11511.454540182903	846
0	38472	11512.257560289338	845
0	38476	11512.450655634355	846
0	38478	11512.581520213126	847
0	38480	11513.53633084793	848
0	38481	11513.626907153114	847
0	38485	11513.786795449603	848
0	38487	11514.752861713417	849
0	38489	11514.790443956857	850
0	38491	11515.30005140657	851
0	38492	11515.355997143	850
0	38496	11516.272250352618	851
0	38497	11516.72036234761	850
0	38501	11516.869289012168	851
0	38502	11518.355639006443	850
0	38506	11519.781207462925	851
0	38508	11519.881894545251	852
0	38509	11519.930675469026	851
0	38513	11521.106932720296	852
0	38514	11521.764288252279	851
0	38517	11523.280486430101	850
0	38521	11524.120522340464	851
0	38522	11525.255415997714	850
0	38526	11525.591569498491	851
0	38528	11525.805018680872	852
0	38529	11527.160153021164	851
0	38533	11527.205865310226	852
0	38534	11528.985421840533	851
0	38537	11530.214540065325	850
0	38541	11530.698941045526	851
0	38543	11530.816459463463	852
0	38544	11531.569845017291	851
0	38547	11532.90010113126	850
0	38551	11533.058086715336	851
0	38553	11533.490297396818	852
0	38554	11534.534704493977	851
0	38558	11534.800353108825	852
0	38559	11535.903085868679	851
0	38562	11537.168928925566	850
0	38566	11538.66135297343	851
0	38567	11539.066987697467	850
0	38571	11539.208250322885	851
0	38572	11541.060542748183	850
0	38575	11543.051378843062	849
0	38579	11543.48682755242	850
0	38581	11543.545733153722	851
0	38584	11544.948212117762	850
0	38588	11546.012143039536	851
0	38589	11546.204316786923	850
0	38593	11546.765668811561	851
0	38594	11547.984516917415	850
0	38598	11548.805131871499	851
0	38599	11549.877250643879	850
0	38603	11550.582813570954	851
0	38605	11551.354153832399	852
0	38606	11551.838539391257	851
0	38610	11552.388768652003	852
0	38611	11553.47692993103	851
0	38614	11554.833087497264	850
0	38618	11555.973849213369	851
0	38620	11556.211549225844	852
0	38621	11556.33734075582	851
0	38625	11557.49651172025	852
0	38626	11558.015350310191	851
0	38629	11559.730796082936	850
0	38634	11561.402531518101	849
0	38640	11562.332121597031	850
0	38642	11562.753997777196	851
0	38643	11563.264203604556	850
0	38647	11563.68984766355	851
0	38648	11564.999003480061	850
0	38651	11566.481373572967	849
0	38655	11566.81871056886	850
0	38657	11566.898540615491	851
0	38659	11567.480874378717	852
0	38661	11567.828618106768	853
0	38662	11568.255454338587	852
0	38665	11569.460552864022	851
0	38668	11571.176393413975	850
0	38672	11571.959014257197	851
0	38673	11572.594401764742	850
0	38677	11572.702838167866	851
0	38678	11573.995721747226	850
0	38682	11574.257621109587	851
0	38684	11574.321572101221	852
0	38685	11575.857906657143	851
0	38688	11577.129599763511	850
0	38692	11578.764381773975	851
0	38693	11578.850946880935	850
0	38697	11579.610367488388	851
0	38699	11579.917539783859	852
0	38700	11580.153221301606	851
0	38703	11581.497728678269	850
0	38707	11581.846974437813	851
0	38709	11581.897476459978	852
0	38711	11582.327169453226	853
0	38712	11583.227242356782	852
0	38716	11583.345230625668	853
0	38718	11583.404431920829	854
0	38721	11584.537557490227	853
0	38724	11586.07078306364	852
0	38727	11587.449087642004	851
0	38731	11588.420189952057	852
0	38732	11588.965954132621	851
0	38736	11589.209098608129	852
0	38737	11590.638984703329	851
0	38741	11591.588855229418	852
0	38742	11591.911462740657	851
0	38746	11591.964913705914	852
0	38748	11593.371277309176	853
0	38749	11593.651280175951	852
0	38753	11594.926145855764	853
0	38756	11595.063709755671	852
0	38760	11595.277372142697	853
0	38761	11596.865472591911	852
0	38764	11598.738905836512	851
0	38768	11598.9071258579	852
0	38770	11598.927266978527	853
0	38772	11600.024871427839	854
0	38773	11600.731202647333	853
0	38776	11602.504242296946	852
0	38779	11604.448800089081	851
0	38782	11606.238800973875	850
0	38786	11606.483929243578	851
0	38788	11606.750026582802	852
0	38789	11607.702653923502	851
0	38792	11609.129407078272	850
0	38795	11610.341826213582	849
0	38799	11611.032257789797	850
0	38800	11611.693478470354	849
0	38804	11613.069257430765	850
0	38806	11613.174337195785	851
0	38808	11613.341451808031	852
0	38809	11613.599868845439	851
0	38813	11614.00878215994	852
0	38814	11614.976926564297	851
0	38818	11615.154289226225	852
0	38820	11616.174990915909	853
0	38821	11616.528281094937	852
0	38825	11617.201533233759	853
0	38827	11617.729917084469	854
0	38828	11617.822618752217	853
0	38831	11619.263970391138	852
0	38835	11620.383629182031	853
0	38836	11620.64074707093	852
0	38840	11620.705378659044	853
0	38841	11621.91068050029	852
0	38845	11622.688837505471	853
0	38846	11623.209887721448	852
0	38850	11624.281852817922	853
0	38851	11624.926264979376	852
0	38855	11625.121215179112	853
0	38857	11625.761075829343	854
0	38858	11626.363830956502	853
0	38862	11626.857134565094	854
0	38864	11627.541552763274	855
0	38865	11628.153281282133	854
0	38869	11628.851491978815	855
0	38871	11629.973955229985	856
0	38873	11630.015741523632	857
0	38874	11630.117950074805	856
0	38878	11630.821351664382	857
0	38880	11631.852304192293	858
0	38881	11632.055013614019	857
0	38885	11632.245397166213	858
0	38886	11633.603061182668	857
0	38890	11634.275896120926	858
0	38891	11635.284606307243	857
0	38894	11636.896179488358	856
0	38898	11636.946005499847	857
0	38900	11637.871552403471	858
0	38901	11638.211726734285	857
0	38904	11640.064616167602	856
0	38908	11640.098733314548	857
0	38909	11641.396554205623	856
0	38913	11641.654157440427	857
0	38915	11641.890616359225	858
0	38916	11642.601840621289	857
0	38920	11642.973838615661	858
0	38921	11644.439200889934	857
0	38925	11645.429811373772	858
0	38928	11646.139859668967	857
0	38932	11646.605075949578	858
0	38933	11647.937555451003	857
0	38936	11649.51497686362	856
0	38940	11649.532149663575	857
0	38942	11650.898034357309	858
0	38943	11651.066385551972	857
0	38947	11652.027388721486	858
0	38948	11653.02154127421	857
0	38952	11654.347745691042	858
0	38953	11654.474094017652	857
0	38957	11654.917193253202	858
0	38959	11655.192606089938	859
0	38961	11655.435551241029	860
0	38962	11656.204675516729	859
0	38966	11656.522073193443	860
0	38967	11657.9980754512	859
0	38971	11659.107747253644	860
0	38972	11659.247589722519	859
0	38976	11659.665954523858	860
0	38978	11660.653983820701	861
0	38979	11661.033273410854	860
0	38982	11662.973910313157	859
0	38986	11663.727042392005	860
0	38987	11664.501788783131	859
0	38991	11664.795976012589	860
0	38993	11664.957610363335	861
0	38994	11666.430804441368	860
0	38997	11667.709493501169	859
0	39001	11668.818331732478	860
0	39003	11669.657693717326	861
0	39004	11669.687003854161	860
0	39008	11671.030494845183	861
0	39010	11671.031601966511	862
0	39011	11671.155304787738	861
0	39014	11672.655010340979	860
0	39017	11674.475950508622	859
0	39021	11675.098055078855	860
0	39023	11675.292475775113	861
0	39024	11676.298160086629	860
0	39028	11677.408390774869	861
0	39030	11677.464269734187	862
0	39031	11677.523758459148	861
0	39034	11679.080307691601	860
0	39038	11679.913737066539	861
0	39040	11680.541013786541	862
0	39042	11680.581739603782	863
0	39044	11680.669823787672	864
0	39045	11680.934859184419	863
0	39049	11681.90473185769	864
0	39050	11682.726064740178	863
0	39056	11684.147580957437	864
0	39058	11684.629677604451	865
0	39059	11684.690211731438	864
0	39062	11685.925577069503	863
0	39065	11687.30493905345	862
0	39069	11687.692684854329	863
0	39071	11688.148566176878	864
0	39072	11689.093521641437	863
0	39075	11691.040516192894	862
0	39079	11692.184090224496	863
0	39080	11692.258357090745	862
0	39084	11693.068168180533	863
0	39085	11693.797058768254	862
0	39089	11694.216244832954	863
0	39091	11694.46336483857	864
0	39093	11694.514221039648	865
0	39094	11695.438445587512	864
0	39098	11696.987447829025	865
0	39100	11697.299012005891	866
0	39101	11697.426789720599	865
0	39105	11697.963537582858	866
0	39107	11699.01303431611	867
0	39108	11699.316751622465	866
0	39112	11699.433249148424	867
0	39114	11699.568007070624	868
0	39115	11701.179744629991	867
0	39118	11702.803044408244	866
0	39121	11704.264325976242	865
0	39125	11704.72576618532	866
0	39128	11706.21197820088	865
0	39132	11707.806588095314	866
0	39133	11708.173264531848	865
0	39137	11708.210506159923	866
0	39139	11708.536626884881	867
0	39141	11709.037695736683	868
0	39142	11709.702424433512	867
0	39146	11710.050552330976	868
0	39148	11711.340860544648	869
0	39149	11711.611265108605	868
0	39152	11713.067777059284	867
0	39156	11713.650513711634	868
0	39158	11714.342050700666	869
0	39159	11714.842469050792	868
0	39162	11716.769220514652	867
0	39166	11717.247863010575	868
0	39167	11718.375463423748	867
0	39171	11719.584998288501	868
0	39172	11719.780170852002	867
0	39175	11721.182728568893	866
0	39178	11722.950378281493	865
0	39182	11724.053279763408	866
0	39183	11724.436358787548	865
0	39187	11725.863437363727	866
0	39188	11726.106479132977	865
0	39191	11727.502950038072	864
0	39195	11728.507352939983	865
0	39196	11728.862714673076	864
0	39199	11730.305364792478	863
0	39203	11731.6981037715	864
0	39204	11731.958633012009	863
0	39208	11732.302689405188	864
0	39210	11733.77533023799	865
0	39211	11733.815971323346	864
0	39215	11734.857597867404	865
0	39216	11735.733539366034	864
0	39220	11735.829540372253	865
0	39221	11737.039763406162	864
0	39225	11737.455588274208	865
0	39227	11737.677233521929	866
0	39228	11738.50007687403	865
0	39232	11738.531630753097	866
0	39235	11740.482881946732	865
0	39239	11741.14694992643	866
0	39240	11742.177261551154	865
0	39244	11742.520365368267	866
0	39245	11743.736758242604	865
0	39249	11744.344522330855	866
0	39250	11745.302848617416	865
0	39254	11746.930917775977	866
0	39256	11747.022364934168	867
0	39257	11747.094328127857	866
0	39261	11747.984203873835	867
0	39262	11748.752028608005	866
0	39265	11750.217706989739	865
0	39268	11751.815919619109	864
0	39272	11751.886727937987	865
0	39274	11751.976158942004	866
0	39276	11752.221933822699	867
0	39277	11753.363558070417	866
0	39281	11754.453931876281	867
0	39282	11754.845160332936	866
0	39285	11756.148447668235	865
0	39289	11757.291922240477	866
0	39290	11758.084428868684	865
0	39293	11759.446733559723	864
0	39297	11760.197692235338	865
0	39298	11761.053844813499	864
0	39302	11762.492528214257	865
0	39303	11762.816304839644	864
0	39306	11764.177517949845	863
0	39310	11765.455012226549	864
0	39312	11765.466131352569	865
0	39314	11765.550853614464	866
0	39316	11765.732182911579	867
0	39319	11766.060492627937	866
0	39322	11767.518294942062	865
0	39326	11768.393985959631	866
0	39328	11768.765524621691	867
0	39329	11768.797858483027	866
0	39333	11769.365444354036	867
0	39335	11769.571572831173	868
0	39336	11770.718778452519	867
0	39340	11771.936667105436	868
0	39341	11772.237633663285	867
0	39344	11773.717951492648	866
0	39348	11773.718559959632	867
0	39350	11774.700881631526	868
0	39351	11774.96009671973	867
0	39354	11776.283661723006	866
0	39358	11776.879878793653	867
0	39360	11777.311264861657	868
0	39361	11777.641192985754	867
0	39364	11778.95050340468	866
0	39368	11779.025088404313	867
0	39370	11780.322816711325	868
0	39371	11780.861535568032	867
0	39375	11781.138272300792	868
0	39376	11782.221250218581	867
0	39379	11783.483573524151	866
0	39382	11784.754792536851	865
0	39385	11786.60595440777	864
0	39389	11786.890520930841	865
0	39391	11787.429858021411	866
0	39392	11788.323479963895	865
0	39395	11789.735578471292	864
0	39399	11790.983026655442	865
0	39400	11791.223447405417	864
0	39404	11791.991636849299	865
0	39405	11792.672889497746	864
0	39409	11793.288127229459	865
0	39410	11794.09433671074	864
0	39414	11794.837758222372	865
0	39416	11795.33448236785	866
0	39417	11795.448626569901	865
0	39421	11796.182558504275	866
0	39422	11797.063576705251	865
0	39426	11797.427237866171	866
0	39428	11797.801526959704	867
0	39432	11798.610901993068	868
0	39433	11798.962984354105	867
0	39437	11799.495685005095	868
0	39439	11800.255394471079	869
0	39440	11800.937810961958	868
0	39446	11802.106468833288	869
0	39447	11802.538713474441	868
0	39450	11803.906953114699	867
0	39454	11804.628745296268	868
0	39455	11805.146870922166	867
0	39459	11806.301140943676	868
0	39460	11807.005400427672	867
0	39463	11808.629949396345	866
0	39467	11809.329809389113	867
0	39469	11809.447914698844	868
0	39470	11810.526626433487	867
0	39474	11811.257964773091	868
0	39476	11811.551404353744	869
0	39478	11812.150572779124	870
0	39479	11812.157126778792	869
0	39483	11812.472746901759	870
0	39484	11813.469019503947	869
0	39488	11814.989856173149	870
0	39489	11815.162787584271	869
0	39493	11815.360760158952	870
0	39495	11816.605519730118	871
0	39496	11817.065533800665	870
0	39500	11817.135623083394	871
0	39501	11818.690176272075	870
0	39506	11820.195824340786	869
0	39509	11821.920450409184	868
0	39513	11822.107238131694	869
0	39515	11822.378279875653	870
0	39516	11823.823412987458	869
0	39519	11825.72011312587	868
0	39523	11827.070736300359	869
0	39524	11827.08485982498	868
0	39529	11828.823149246032	867
0	39533	11828.906544390208	868
0	39534	11830.655506210084	867
0	39538	11831.284530819902	868
0	39539	11832.193165171388	867
0	39543	11832.315556855155	868
0	39545	11832.519397974003	869
0	39546	11833.979478950295	868
0	39550	11834.4687630324	869
0	39552	11835.309527359099	870
0	39553	11835.581448338422	869
0	39557	11835.807230635653	870
0	39559	11836.26188938132	871
0	39560	11836.81426095521	870
0	39564	11837.947847516738	871
0	39565	11838.470983112659	870
0	39569	11838.85948884485	871
0	39571	11839.819079862514	872
0	39573	11840.303045778224	873
0	39574	11840.468191596921	872
0	39577	11841.883490276206	871
0	39581	11841.997877927027	872
0	39582	11843.189161810521	871
0	39586	11843.957870575504	872
0	39587	11844.401570628639	871
0	39591	11844.604655002256	872
0	39592	11845.62658121759	871
0	39596	11845.670433238387	872
0	39598	11845.897448289796	873
0	39599	11847.212630219999	872
0	39602	11849.203232223596	871
0	39605	11850.789916509259	870
0	39608	11852.193072461951	869
0	39612	11853.754018606305	870
0	39613	11854.099735395852	869
0	39617	11854.705533647792	870
0	39619	11855.511863407744	871
0	39620	11855.546634097639	870
0	39624	11855.692712933992	871
0	39626	11857.357072117646	872
0	39627	11857.456088088508	871
0	39631	11859.026523416332	872
0	39632	11859.248730457816	871
0	39635	11860.602113242317	870
0	39638	11862.555906077717	869
0	39642	11862.781118812261	870
0	39643	11863.770123439152	869
0	39646	11865.226935622525	868
0	39649	11866.85314681368	867
0	39653	11866.935410601986	868
0	39655	11867.400714156864	869
0	39657	11868.164713592187	870
0	39658	11868.324759011958	869
0	39662	11868.946848986321	870
0	39664	11869.130556020311	871
0	39665	11870.015249849167	870
0	39669	11870.238015475332	871
0	39671	11870.486706569412	872
0	39672	11871.399451023583	871
0	39676	11871.829465208134	872
0	39677	11873.026713027303	871
0	39682	11874.630356016998	870
0	39686	11875.381481628603	871
0	39688	11875.439521831431	872
0	39689	11876.182702651118	871
0	39693	11877.330252395303	872
0	39695	11877.542587203514	873
0	39697	11877.755739419459	874
0	39698	11878.179800269065	873
0	39702	11878.570395950915	874
0	39704	11879.032712329542	875
0	39705	11879.737131401022	874
0	39708	11881.595015257281	873
0	39711	11883.321565287244	872
0	39715	11883.740508653963	873
0	39717	11884.278486426732	874
0	39718	11885.241023080107	873
0	39721	11886.560073603932	872
0	39725	11887.8550863816	873
0	39726	11887.929570709784	872
0	39729	11889.199092921671	871
0	39733	11890.301853110014	872
0	39734	11890.431887392942	871
0	39738	11891.19477667432	872
0	39739	11892.092715233062	871
0	39743	11892.239603891824	872
0	39745	11892.317815464231	873
0	39746	11893.565808423479	872
0	39750	11894.602206725028	873
0	39751	11894.894507002515	872
0	39754	11896.295971007702	871
0	39758	11897.688707800826	872
0	39759	11897.893349048925	871
0	39763	11898.925018618717	872
0	39764	11899.751878551265	871
0	39768	11900.312995610681	872
0	39769	11901.092536340339	871
0	39773	11902.183444166436	872
0	39774	11902.434076481743	871
0	39777	11904.336826533323	870
0	39781	11904.471037439757	871
0	39783	11905.470323403603	872
0	39785	11905.576179061937	873
0	39786	11906.274254863953	872
0	39790	11906.366574129862	873
0	39792	11906.563637678484	874
0	39793	11907.513156645244	873
0	39797	11907.730721670408	874
0	39798	11909.325601404777	873
0	39802	11910.303602955955	874
0	39803	11910.564243578037	873
0	39807	11911.077075324216	874
0	39808	11911.79835136464	873
0	39811	11913.228623565902	872
[...]
6	35175	10515.522470704138	339
6	35283	10547.093249296037	340
6	35417	10594.845886929908	341
6	35675	10669.854432692717	342
6	35759	10694.934261984776	343
6	36138	10809.003305548373	344
6	36170	10818.861293498249	345
6	36182	10821.156277962036	346
6	36226	10835.22125025759	347
6	36257	10842.421813724722	348
6	36338	10866.328369504776	349
6	36378	10876.087528361711	350
6	36450	10896.916324421911	351
6	36482	10907.244493291242	352
6	36487	10908.577987346884	353
6	36612	10948.999061140176	354
6	36688	10972.758022783817	355
6	36805	11010.638626524949	356
6	36883	11032.839536194129	357
6	36950	11053.479555072173	358
6	37011	11070.887667552449	359
6	37257	11142.526880387428	360
6	37444	11196.336041165757	361
6	37566	11236.910758021643	362
6	37637	11256.613389229128	363
6	37679	11269.272599266083	364
6	38032	11381.21196193847	365
6	38128	11409.314999705584	366
6	38130	11409.939128434131	367
6	38279	11456.074526923473	368
6	38583	11543.567211313986	369
6	38633	11559.930312558159	370
6	38638	11561.870693199942	371
6	38720	11583.944961404868	372
6	38755	11595.015608891589	373
6	38927	11645.673348348097	374
6	39054	11682.922627031765	375
6	39127	11705.188504811582	376
6	39234	11738.887410793807	377
6	39318	11765.764837974812	378
6	39430	11798.228109232373	379
6	39444	11801.177822475726	380
6	39505	11818.944560389398	381
6	39528	11828.278910394037	382
6	39681	11874.003473804422	383
6	40059	11990.292104282467	384
6	40064	11990.725604572839	385
6	40071	11992.848496923652	386
6	40122	12009.754190514189	387
6	40199	12032.77827438253	388
6	40251	12044.782539905732	389
6	40279	12054.896741715926	390
6	40388	12083.620072528148	391
6	40390	12085.204406238928	392
6	40592	12148.138628970837	393
6	40868	12232.5260984316	394
6	40987	12264.837603755691	395
6	41025	12277.580285890274	396
6	41034	12279.071768144428	397
6	41043	12280.921983423613	398
6	41195	12329.75456318469	399
6	41224	12336.556362481835	400
6	41335	12373.894827138175	401
6	41476	12417.847114853962	402
6	41728	12490.756253617799	403
6	41745	12495.102047838056	404
6	41760	12499.358909837436	405
6	41774	12503.07308811994	406
6	41883	12533.744061651041	407
6	41935	12549.335102510985	408
6	41964	12558.322024213592	409
6	42158	12615.101611446347	410
6	42247	12640.582938749026	411
6	42304	12659.009647431409	412
6	42458	12709.20699844469	413
6	42592	12749.888038671615	414
6	42692	12775.578172159398	415
6	42769	12799.568586852934	416
6	42881	12834.63919473524	417
6	43056	12889.194963733022	418
6	43257	12949.344813764877	419
6	43486	13015.903276522432	420
6	43695	13076.621112929965	421
6	43759	13095.423454248866	422
6	43934	13144.443546573628	423
6	43960	13152.506076188302	424
6	44068	13189.205971880768	425
6	44166	13219.040161735774	426
6	44173	13221.160198072377	427
6	44230	13237.826406530394	428
6	44245	13239.991665060918	429
6	44342	13271.947532558885	430
6	44402	13288.073282534385	431
6	44599	13341.857592919587	432
6	44663	13361.083242988238	433
6	44678	13365.086159479601	434
6	44691	13370.052329982533	435
6	45145	13504.777290440738	436
6	45282	13543.887025550298	437
6	45321	13555.085726395757	438
6	45408	13579.380719284399	439
6	45485	13601.486318824057	440
6	45494	13603.844648470681	441
6	45817	13701.519502433929	442
6	46145	13808.011609359969	443
6	46160	13812.552095860127	444
6	46239	13835.063500561939	445
6	46363	13872.832578698849	446
6	46634	13957.367805235012	447
6	46746	13989.446747080872	448
6	46763	13993.488008003305	449
6	46902	14034.060529786222	450
6	46923	14039.820397683469	451
6	46940	14043.481510002844	452
6	46967	14052.809137136601	453
6	47014	14064.389578428965	454
6	47056	14077.528435138281	455
6	47087	14085.763131431315	456
6	47310	14157.561049000956	457
6	47375	14174.762808084352	458
6	47491	14210.945176981814	459
6	47880	14323.658646063432	460
6	48120	14401.033245358939	461
6	48280	14444.191844310122	462
6	48354	14466.951455504993	463
6	48373	14473.206620085529	464
6	48445	14491.446726317803	465
6	48454	14492.839290846658	466
6	48490	14503.419599543709	467
6	48531	14513.792286830111	468
6	48630	14542.825161436385	469
6	48796	14593.03646041924	470
6	48930	14633.606354573191	471
6	48941	14634.48536929325	472
6	49201	14712.478002980223	473
6	49329	14751.568396415042	474
6	49384	14769.336001381856	475
6	49536	14815.226717722567	476
6	49591	14831.969753197957	477
6	49593	14832.581725854447	478
6	49626	14844.266239149761	479
6	49705	14872.061643132537	480
6	49753	14883.807645344696	481
6	49911	14930.661140971053	482
6	49916	14930.996530615209	483
6	49949	14943.270869248401	484
6	49966	14947.040640831324	485
6	50097	14986.574105358342	486
6	50384	15075.995225385397	487
6	50488	15111.697294901456	488
6	50810	15205.351282827114	489
6	50963	15249.824613805841	490
6	51045	15277.114826507934	491
6	51122	15297.580983568069	492
6	51132	15301.447709094928	493
6	51152	15306.867235298138	494
6	51201	15321.94444392095	495
6	51277	15347.385654568466	496
6	51601	15445.99555253154	497
6	51680	15472.179082704617	498
6	51768	15498.081423358234	499
6	51785	15502.080076448441	500
6	51942	15547.701360633423	501
6	52055	15578.323824322815	502
6	52070	15582.803792118812	503
6	52132	15600.765826555849	504
6	52318	15655.179166897079	505
6	52349	15665.913137223367	506
6	52479	15705.11655070437	507
6	52665	15760.945868962996	508
6	52849	15813.50553515178	509
6	52891	15827.679709528345	510
6	52942	15845.013922961046	511
6	53108	15891.581204235936	512
6	53249	15934.616784403132	513
6	53267	15939.160301468867	514
6	53305	15950.622604940553	515
6	53347	15959.880830436909	516
6	53364	15964.80516893294	517
6	53485	15996.201617603318	518
6	53499	15999.516393055402	519
6	53522	16006.201630220246	520
6	53596	16026.076890560226	521
6	53624	16034.685276086304	522
6	53685	16054.533726769356	523
6	53706	16060.288373928307	524
6	53846	16107.142193179545	525
6	53865	16112.833312400819	526
6	53907	16123.789895258503	527
6	53909	16124.443632934746	528
6	53922	16129.419909015903	529
6	54261	16226.655839814253	530
6	54361	16259.178768848382	531
6	54375	16261.741667749265	532
6	54423	16273.731291012522	533
6	54732	16367.679984046758	534
6	54771	16378.795047532684	535
6	54882	16411.854324086169	536
6	54928	16425.352899432474	537
6	54991	16445.224972769552	538
6	55202	16505.16703539743	539
6	55207	16506.38099672249	540
6	55262	16524.203294412845	541
6	55332	16541.068737181841	542
6	55561	16614.457805911887	543
6	55693	16651.42199207162	544
6	55695	16652.420549310435	545
6	55945	16727.491097670215	546
6	56064	16759.038596381488	547
6	56131	16781.879889520574	548
6	56156	16789.35289715175	549
6	56168	16791.856958923468	550
6	56245	16815.671023957417	551
6	56379	16854.507098992271	552
6	56450	16874.103221783485	553
6	56655	16936.604459447988	554
6	56669	16939.447642423025	555
6	56828	16987.557146254346	556
6	56869	16999.07737884846	557
6	57089	17072.983352222761	558
6	57422	17181.663404938279	559
6	57511	17204.743774459001	560
6	57659	17249.894785918477	561
6	57701	17262.104703261918	562
6	57709	17263.961181733763	563
6	57849	17306.842619735773	564
6	57859	17309.452993692391	565
6	58127	17389.960551347374	566
6	58165	17398.712905096708	567
6	58167	17398.764799135697	568
6	58195	17404.871890411075	569
6	58247	17421.902966693351	570
6	58435	17482.575058267037	571
6	58463	17489.469185397676	572
6	58584	17528.179312169364	573
6	59004	17658.046174791414	574
6	59014	17660.376664946917	575
6	59019	17662.339349073935	576
6	59246	17731.073437481757	577
6	59292	17747.028496417059	578
6	59386	17772.961661345793	579
6	59636	17846.186746806175	580
6	59777	17890.684739021851	581
6	59874	17921.181194883264	582
6	59909	17933.012868973566	583
6	59984	17956.018474373974	584
6	60617	18149.068372784934	585
6	60684	18170.953452604697	586
6	60796	18207.042818943523	587
6	60896	18239.063198720599	588
6	61128	18306.919243090975	589
6	61212	18332.566291346367	590
6	61265	18347.885428643217	591
6	61304	18357.629134905046	592
6	61353	18373.820407806961	593
6	61378	18381.383762031381	594
6	61438	18399.096528247702	595
6	61443	18399.88903662931	596
6	61471	18406.673052134187	597
6	61499	18414.43545597109	598
6	61680	18469.305487773053	599
6	61817	18510.403988361913	600
6	62024	18570.629437956706	601
6	62176	18618.302904046782	602
6	62219	18631.776157269698	603
6	62230	18633.641931721023	604
6	62263	18642.355615332896	605
6	62409	18685.485996797961	606
6	62434	18693.268426978191	607
6	62532	18721.952749951292	608
6	62751	18788.536988865947	609
6	62768	18794.444750373518	610
6	62797	18802.01029489102	611
6	62934	18846.062038267485	612
6	62994	18863.828160710894	613
6	63006	18868.331937150804	614
6	63085	18892.600827542818	615
6	63263	18945.465214048439	616
6	63276	18949.893854004679	617
6	63337	18965.219203687702	618
6	63680	19067.951655309248	619
6	63741	19086.728140536663	620
6	63841	19118.160162334063	621
6	63899	19134.424727171304	622
6	63936	19145.162699862472	623
6	64013	19167.995435803717	624
6	64122	19200.651335137389	625
6	64211	19223.822027839794	626
6	64255	19235.994688452009	627
6	64315	19254.302876684621	628
6	64457	19300.706595793582	629
6	64481	19307.420744405887	630
6	64503	19315.005012723081	631
6	64576	19336.608909250755	632
6	64632	19352.83992618747	633
6	64695	19370.66938658426	634
6	64763	19391.73579594965	635
6	64780	19397.201947000709	636
6	64797	19401.599782256768	637
6	64861	19420.714629932498	638
6	64917	19433.418466206924	639
6	65133	19506.084075464506	640
6	65321	19560.855367011218	641
6	65392	19581.904115105503	642
6	65566	19636.315322586896	643
6	65766	19698.182842271795	644
6	65870	19727.959960474925	645
6	65902	19737.434385584782	646
6	66121	19806.205051469258	647
6	66619	19958.765848053611	648
6	66921	20048.768685421102	649
6	66950	20055.21660120508	650
6	67018	20075.075895820331	651
6	67121	20107.895140688096	652
6	67131	20109.785354381184	653
6	67198	20130.867297379158	654
6	67294	20159.770805188927	655
6	67311	20165.3664284251	656
6	67463	20209.833093278453	657
6	67633	20260.430132989806	658
6	67664	20268.85647396059	659
6	67805	20314.969797229599	660
6	67980	20368.865336942444	661
6	68032	20384.499614248669	662
6	68048	20391.612665425607	663
6	68119	20411.914255207011	664
6	68126	20413.680140402209	665
6	68230	20443.915437262857	666
6	68262	20453.188328623479	667
6	68320	20469.332224331475	668
6	68365	20483.531973267129	669
6	68404	20495.841513814331	670
6	68538	20533.986369975441	671
6	68594	20549.094107696773	672
6	68745	20596.349761458058	673
6	68906	20642.987628865023	674
6	69041	20681.42693593825	675
6	69048	20684.076639380337	676
6	69240	20739.953376320088	677
6	69284	20753.032101430788	678
6	69299	20758.903317904979	679
6	69535	20827.065510075526	680
6	69630	20857.899875097215	681
6	69731	20888.401928876486	682
6	69842	20923.999464034397	683
6	69883	20934.532376753442	684
6	69923	20945.019522057174	685
6	69949	20952.797380781565	686
6	69977	20961.724667651744	687
6	69979	20963.036748323256	688
6	70079	20990.217341025351	689
6	70150	21008.4785042016	690
6	70302	21055.673593682606	691
6	70491	21112.969447618464	692
6	70526	21124.428821544728	693
6	70672	21166.533767754773	694
6	70798	21204.238922146068	695
6	70831	21213.296334391192	696
6	70864	21222.752610744546	697
6	71034	21271.466336738771	698
6	71120	21298.015823640519	699
6	71278	21343.907747588525	700
6	71285	21344.516721604024	701
6	71381	21375.054798154338	702
6	71502	21408.728999245614	703
6	71626	21449.920370955772	704
6	71642	21452.661811749281	705
6	71880	21522.904213303502	706
6	71967	21549.425386823261	707
6	72081	21583.032708837184	708
6	72380	21676.214115349008	709
6	72562	21734.924001664045	710
6	72622	21755.803089030631	711
6	72791	21809.349338346704	712
6	72796	21811.267016002773	713
6	72835	21822.27520653351	714
6	72845	21825.11322183941	715
6	72889	21841.405986440433	716
6	72893	21842.546529480066	717
6	72947	21859.975793622232	718
6	72976	21870.340257059781	719
6	73031	21885.817011564438	720
6	73486	22023.251768586242	721
6	73689	22084.084700399876	722
6	74037	22186.370349043374	723
6	74236	22243.19843625294	724
6	74363	22282.050983523742	725
6	74438	22303.189647346268	726
6	74450	22305.471057520964	727
6	74460	22309.810673791035	728
6	74526	22333.070170692115	729
6	74546	22339.609192049806	730
6	74679	22376.247985535899	731
6	75009	22473.587774603201	732
6	75025	22476.105520966133	733
6	75475	22616.497426441407	734
6	75718	22691.183004876054	735
6	75720	22692.146177167404	736
6	75801	22716.607210523412	737
6	75933	22753.933019487406	738
6	75984	22767.640327532699	739
6	76038	22784.330028717359	740
6	76050	22787.595819962588	741
6	76069	22791.290197906127	742
6	76304	22860.903401613161	743
6	76407	22890.17233112048	744
6	76492	22922.204931080343	745
6	76948	23058.599532727544	746
6	76980	23067.046356173	747
6	77217	23137.45367679115	748
6	77241	23144.285190592291	749
6	77352	23178.48873195097	750
6	77411	23194.710429171016	751
6	77502	23222.955482017456	752
6	77716	23288.490715693431	753
6	77775	23306.916291732981	754
6	77876	23335.316544540136	755
6	77919	23346.608065215769	756
6	78045	23385.17079667039	757
6	78092	23399.809473159055	758
6	78256	23444.862160312309	759
6	78288	23454.421121694623	760
6	78300	23458.744721856716	761
6	78394	23487.335961317142	762
6	78406	23490.077680565891	763
6	78436	23499.647498640849	764
6	78557	23537.483572212861	765
6	78762	23600.582023654365	766
6	78872	23636.906724316007	767
6	78894	23644.112975572463	768
6	79031	23686.012313994458	769
6	79102	23709.491716080043	770
6	79171	23729.110888841245	771
6	79265	23753.799727942392	772
6	79323	23770.478185070891	773
6	79394	23791.299873346169	774
6	79399	23792.877946684757	775
6	79440	23805.104698799858	776
6	79499	23822.415048180657	777
6	79596	23854.387399336286	778
6	79647	23872.169280187055	779
6	79778	23910.25266993021	780
6	79856	23929.789267910876	781
6	79885	23937.352339195691	782
6	79890	23938.891647797852	783
6	79946	23955.058790600533	784
6	80100	24001.791374970385	785
6	80187	24029.339897682241	786
6	80217	24039.355607055023	787
6	80246	24048.107456479969	788
6	80607	24158.402681902111	789
6	80651	24170.055369804519	790
6	80724	24191.776234231075	791
6	80785	24210.276591437201	792
6	80833	24223.801749146608	793
6	80860	24231.111681354282	794
6	81075	24292.779083821921	795
6	81102	24300.984483592721	796
6	81113	24303.013195590088	797
6	81415	24390.467740598486	798
6	81454	24401.142380149891	799
6	81487	24412.03640531769	800
6	81508	24418.408597396684	801
6	81673	24469.078247455863	802
6	81693	24471.912198847454	803
6	81941	24548.104503550566	804
6	82001	24566.03560948652	805
6	82108	24603.807176342381	806
6	82151	24617.451820915101	807
6	82193	24629.268328101693	808
6	82210	24634.750234708207	809
6	82232	24640.662769394609	810
6	82423	24688.507566412576	811
6	82672	24771.341248504316	812
6	82825	24812.358349582337	813
6	82846	24817.55791139189	814
6	82878	24825.901006344495	815
6	82933	24840.768657983159	816
6	83039	24874.837013608305	817
6	83158	24911.746599673714	818
6	83306	24959.686058947987	819
6	83400	24993.553031151727	820
6	83521	25027.031802519041	821
6	83714	25082.948621308368	822
6	83741	25091.061814552365	823
6	83886	25133.320488936995	824
6	83911	25138.410797931287	825
6	83970	25154.928212658999	826
6	84022	25169.806303744587	827
6	84226	25235.343975033954	828
6	84318	25261.113006639159	829
6	84370	25276.825563890078	830
6	84404	25285.073264957972	831
6	84495	25317.031993997315	832
6	84541	25330.250368093779	833
6	84631	25357.520133510395	834
6	84847	25422.606109339133	835
6	84922	25444.861565287871	836
6	84937	25448.645974602383	837
6	84954	25453.0115105727	838
6	85020	25474.751987899168	839
6	85130	25504.08528444643	840
6	85216	25530.606149794459	841
6	85293	25550.871159681895	842
6	85363	25574.072309352968	843
6	85395	25583.335323518957	844
6	85447	25599.118719399264	845
6	85662	25660.83530822866	846
6	85722	25680.063243215974	847
6	85743	25685.086086481751	848
6	85753	25687.852415014942	849
6	85939	25744.084703607833	850
6	86160	25808.756353530727	851
6	86551	25933.7455996651	852
6	86620	25956.044392475994	853
6	86907	26044.13996996908	854
6	86924	26048.588775531223	855
6	86963	26059.176265870402	856
6	87048	26083.333231214995	857
6	87053	26084.359551100146	858
6	87055	26084.508967052056	859
6	87175	26115.863043960377	860
6	87180	26116.309466739834	861
6	87200	26123.702169380365	862
6	87315	26158.334225011154	863
6	87401	26184.358144888547	864
6	87403	26184.677474080618	865
6	87577	26240.712878465799	866
6	87589	26242.934708406475	867
6	87648	26260.786452259738	868
6	87784	26296.824269205216	869
6	87812	26306.150831754684	870
6	87934	26344.511220629481	871
6	87936	26344.820828559498	872
6	87995	26360.587013144034	873
6	88012	26365.682129698139	874
6	88016	26367.311098298426	875
6	88114	26398.447945966446	876
6	88140	26407.106005459632	877
6	88296	26452.12749458941	878
6	88346	26470.139709936257	879
6	88502	26514.712626359421	880
6	88658	26564.10787018715	881
6	88763	26599.1911832213	882
6	88795	26609.295702617241	883
6	88851	26626.309032322524	884
6	88858	26627.101295013691	885
6	88987	26667.652761196625	886
6	89031	26681.859201943124	887
6	89136	26712.256429764762	888
6	89244	26743.020753692117	889
6	89318	26770.985244496757	890
6	89377	26787.526966033368	891
6	89776	26904.711384439711	892
6	89799	26909.44011460718	893
6	89934	26954.53376422149	894
6	90098	27003.526201466089	895
6	90142	27016.962022643451	896
6	90583	27152.317253914888	897
6	90626	27166.257852751685	898
6	90646	27173.859608262023	899
6	90672	27184.073484430499	900
6	90702	27193.508174400872	901
6	90980	27271.802578992992	902
6	91014	27281.491584754585	903
6	91030	27285.068622647727	904
6	91055	27292.468087455289	905
6	91148	27322.054945540499	906
6	91351	27386.575983444663	907
6	91360	27388.111918873286	908
6	91520	27432.272036410689	909
6	91560	27442.636794394969	910
6	91640	27466.687923087012	911
6	91706	27486.401039387808	912
6	91782	27505.312527308414	913
6	91808	27511.45000685823	914
6	91842	27519.569395931512	915
6	92458	27700.781159488306	916
6	92496	27714.369455602856	917
6	92543	27727.835781155528	918
6	92673	27763.86733551755	919
6	92848	27815.087912490981	920
6	92932	27841.350062433087	921
6	93164	27913.528778150924	922
6	93206	27923.579992065913	923
6	93328	27962.542641304264	924
6	93415	27989.942417360917	925
6	93429	27993.597965953082	926
6	93510	28018.680540819937	927
6	93537	28026.305956121222	928
6	93685	28066.603806959973	929
6	93774	28093.328910062857	930
6	93820	28104.492463104167	931
6	93827	28106.852302429219	932
6	93851	28115.100296318296	933
6	93886	28122.682118340503	934
6	93977	28147.995264335629	935
6	94026	28162.779700056547	936
6	94112	28192.71826310287	937
6	94134	28198.492446796703	938
6	94183	28212.545123820347	939
6	94406	28279.050073607548	940
6	94598	28335.793995707215	941
6	94762	28383.296783133815	942
6	94784	28388.679528517189	943
6	94936	28435.745662696112	944
6	95036	28464.920442696824	945
6	95067	28476.246598692366	946
6	95176	28508.599038449041	947
6	95231	28525.854185526867	948
6	95952	28742.727805515353	949
6	96122	28792.255793728301	950
6	96250	28831.098068457595	951
6	96282	28839.565101669132	952
6	96427	28886.708320818606	953
6	96510	28910.366364633208	954
6	96522	28913.400494387813	955
6	96549	28922.807653888569	956
6	96577	28928.755438509847	957
6	96798	28995.912824078845	958
6	96809	28997.792867940987	959
6	96831	29002.943317413615	960
6	97455	29192.121123995793	961
6	97465	29194.117569956017	962
6	97505	29206.645518834609	963
6	97690	29260.630543081916	964
6	97883	29320.764135818059	965
6	97988	29350.463098845247	966
6	98063	29373.548621253678	967
6	98144	29397.856615167098	968
6	98286	29440.865914454249	969
6	98358	29459.512831470797	970
6	98360	29460.172622648645	971
6	98495	29506.446247211637	972
6	98513	29510.650063509371	973
6	98846	29607.194531832844	974
6	99000	29656.076616034098	975
6	99108	29690.190595882415	976
6	99154	29704.125175294655	977
6	99247	29732.001755902882	978
6	99339	29758.75149759649	979
6	99388	29773.560024911558	980
6	99412	29780.656927558111	981
6	99424	29782.942626671251	982
6	99937	29944.83332279569	983
6	100072	29983.655238172611	984
6	100112	29994.899231456715	985

