version 2
run Third_exit_9-10-20191017-13:44:32-2066
attr configname Third_exit_9
attr datetime 20191017-13:44:32
attr experiment Third_exit_9
attr inifile omnetpp.ini
attr iterationvars ""
attr iterationvarsf ""
attr measurement ""
attr network ResponseTimeNetwork
attr processid 2066
attr repetition 10
attr replication #10
attr resultdir results
attr runnumber 10
attr seedset 10
param **.Source.interArrivalTime exponential(6s)
param **.jobPriority bernoulli(0.8)
param **.PS.serviceTimeU1 "uniform(1.2s, 2.0s)"
param **.PS.serviceTimeU2 "uniform(2.4s, 2.8s)"
param **.SS1.serviceTime exponential(1.4s)
param **.SS2.serviceTime exponential(2s)
param **.PS.exitProbability bernoulli(0.9)

vector 0 ResponseTimeNetwork.SS1 queueLength:vector ETV
attr interpolationmode sample-hold
attr title "queue length, vector"
vector 1 ResponseTimeNetwork.SS2 queueLength:vector ETV
attr interpolationmode sample-hold
attr title "queue length, vector"
vector 2 ResponseTimeNetwork.QueueU1 queueLength:vector ETV
attr interpolationmode sample-hold
attr title "queue length, vector"
vector 3 ResponseTimeNetwork.QueueU2 queueLength:vector ETV
attr interpolationmode sample-hold
attr title "queue length, vector"
vector 4 ResponseTimeNetwork.sink lifeTimeU1:vector ETV
attr interpolationmode none
attr title "lifetime of arrived jobs U1, vector"
attr unit s
vector 5 ResponseTimeNetwork.sink lifeTime:vector ETV
attr interpolationmode none
attr title "lifetime of arrived jobs, vector"
attr unit s
2	0	0	0
2	10	11.267582234097	1
2	11	12.580852688159	0
2	20	15.530195985991	1
2	21	15.60941464478	0
2	30	17.248445932248	1
2	31	18.768584774302	0
2	35	19.271174882084	1
2	38	20.6218662432	0
2	42	20.930984242718	1
2	43	22.311887102069	0
2	47	23.601914955908	1
2	49	24.102843237528	2
2	50	24.213979052992	1
2	56	25.672731871506	2
2	57	25.846683797853	1
2	61	26.594099047879	2
2	62	27.160419835949	1
2	66	27.814713141251	2
2	67	28.827540929669	1
2	71	29.109872170478	2
2	72	30.381007469871	1
2	76	31.177867768843	2
2	77	31.665328933165	1
2	81	32.132206615048	2
2	83	33.195404271111	3
2	84	33.275839527563	2
2	88	33.602272411156	3
2	90	34.562287610385	4
2	91	35.088204181433	3
2	95	36.413449656986	4
2	96	37.015123289317	3
2	100	37.553478890162	4
2	101	38.662841982819	3
2	105	39.23504980336	4
2	106	40.103402028657	3
2	110	40.2728309799	4
2	111	41.364886429585	3
2	114	42.602403485082	2
2	118	43.417678424099	3
2	120	44.049547724536	4
2	122	44.19801721566	5
2	123	44.303433205053	4
2	127	45.891637731597	5
2	128	46.116937241569	4
2	131	47.598259352572	3
2	135	48.613047786796	4
2	136	49.401977506704	3
2	140	49.887418305042	4
2	141	51.299891473404	3
2	144	52.760300783678	2
2	148	52.902482929175	3
2	149	54.092313501104	2
2	153	54.463088087712	3
2	156	55.529168460756	2
2	160	55.822064365458	3
2	162	56.500636138183	4
2	163	57.256397504597	3
2	167	57.767572080574	4
2	168	58.805480462923	3
2	171	60.370524100266	2
2	174	62.231422376684	1
2	177	63.632521684892	0
2	181	63.916533845835	1
2	183	64.625089180267	2
2	184	65.310419005766	1
2	188	65.377570693657	2
2	189	66.938065365008	1
2	193	67.88892503775	2
2	194	68.169490776448	1
2	198	68.17383109627	2
2	200	68.671597955961	3
2	202	69.003158189935	4
2	203	69.471068253419	3
2	207	69.565330629024	4
2	209	69.904147345094	5
2	211	69.961238654246	6
2	213	70.278981383499	7
2	215	70.858630405918	8
2	217	71.064701145863	9
2	218	71.290132491714	8
2	221	72.581851531989	7
2	225	72.706864764224	8
2	227	72.768539834344	9
2	230	74.248265176131	8
2	234	75.343440020933	9
2	235	75.867313883691	8
2	239	76.265260270147	9
2	241	77.567726143936	10
2	242	77.63157917378	9
2	246	78.640208876972	10
2	247	78.939229572988	9
2	251	80.238676654158	10
2	252	80.349002101882	9
2	256	80.85009072849	10
2	257	81.954128362848	9
2	261	82.009035751737	10
2	262	83.396578413485	9
2	266	83.784619211299	10
2	267	84.596796435913	9
2	271	86.126431991301	10
2	272	86.249202050133	9
2	276	87.1516545736	10
2	278	87.970600239654	11
2	279	88.047267628698	10
2	283	88.734812946055	11
2	284	90.03032294312	10
2	288	90.049233710713	11
2	290	90.611424975374	12
2	291	91.995805603689	11
2	294	93.280552052012	10
2	298	93.862352773338	11
2	300	94.148992616796	12
2	301	94.735170295326	11
2	305	95.943472946662	12
2	306	96.009455176679	11
2	309	97.263932994989	10
2	313	98.709935355588	11
2	314	98.835557639648	10
2	318	100.014423009675	11
2	319	100.125689317149	10
2	323	101.789606368874	11
2	324	101.794506898385	10
2	328	103.575756961789	11
2	329	103.687159191866	10
2	333	104.180267537177	11
2	335	104.33304161053	12
2	337	104.980643435141	13
2	338	105.337711743501	12
2	342	105.379170990945	13
2	343	107.076485282605	12
2	347	107.118378162802	13
2	349	107.319236889233	14
2	352	108.441161663508	13
2	356	108.530122076256	14
2	357	109.784283909066	13
2	361	109.902425451318	14
2	362	111.183057489856	13
2	365	112.385390358283	12
2	371	112.822341740242	13
2	373	113.30885979348	14
2	374	113.821744071184	13
2	378	114.733253595416	14
2	381	115.500348604149	13
2	385	115.900670880516	14
2	386	117.255730183474	13
2	389	118.870005438342	12
2	393	119.318762950956	13
2	395	120.413252785368	14
2	396	120.829741428844	13
2	400	122.080151059845	14
2	404	122.752592156702	15
2	405	122.753473217837	14
2	409	123.345606170494	15
2	410	124.005871500127	14
2	414	124.5166224293	15
2	416	124.723504891135	16
2	417	125.632648211397	15
2	421	127.541876444897	16
2	422	127.614967622474	15
2	426	128.378626269379	16
2	428	128.806422164688	17
2	429	129.27709902437	16
2	433	129.331295000037	17
2	434	131.178967215173	16
2	438	132.407524435659	17
2	439	133.028939097241	16
2	443	133.321247351859	17
2	444	134.347765860573	16
2	448	135.130932300349	17
2	449	136.143119569548	16
2	453	136.431658663411	17
2	454	137.426815364376	16
2	458	137.792923878133	17
2	460	138.237574695554	18
2	461	138.811619621381	17
2	465	138.883509585842	18
2	466	140.666848308459	17
2	470	140.835337405741	18
2	471	142.506903305516	17
2	474	143.915815577522	16
2	478	145.412344196755	17
2	480	145.721425264675	18
2	481	145.806831734121	17
2	485	145.911371501898	18
2	487	146.402547820123	19
2	488	147.30355350548	18
2	492	147.357147096906	19
2	493	149.250635301001	18
2	497	149.689974807993	19
2	499	150.396510960168	20
2	500	150.813119302928	19
2	504	151.953912892045	20
2	505	152.213028289429	19
2	509	152.828197735273	20
2	510	153.547486530296	19
2	513	155.495589746028	18
2	517	156.09796919411	19
2	520	156.863267912023	18
2	524	158.235131634185	19
2	525	158.54579829672	18
2	529	158.608189894143	19
2	531	159.947188735601	20
2	532	160.132181648962	19
2	536	160.162130986734	20
2	539	162.029631496273	19
2	543	162.276413110368	20
2	544	163.59644286675	19
2	548	164.604083285005	20
2	549	164.810066847555	19
2	553	165.120430613734	20
2	554	166.685575479507	19
2	558	166.954580349529	20
2	559	168.514260149799	19
2	563	169.874652105975	20
2	565	170.13561949704	21
2	566	170.393271406978	20
2	570	171.24739612587	21
2	571	172.052370023407	20
2	575	172.053752040257	21
2	577	172.246544774478	22
2	578	173.34575362844	21
2	582	173.484974752771	22
2	583	174.852371667191	21
2	587	175.505766606315	22
2	588	176.114039987191	21
2	592	176.43689283064	22
2	593	177.921477171085	21
2	597	178.17524275299	22
2	598	179.356542415968	21
2	604	180.849389816023	22
2	605	181.033337558857	21
2	609	181.784175755279	22
2	610	182.308089861139	21
2	613	184.225012446991	20
2	617	184.657763596193	21
2	619	185.357647657303	22
2	620	185.992970754257	21
2	623	187.429266642457	20
2	626	188.772137402794	19
2	630	188.791052944928	20
2	632	190.325417133969	21
2	633	190.714934113114	20
2	637	191.266875835836	21
2	639	192.28021145285	22
2	640	192.321014841325	21
2	644	192.584673970587	22
2	645	193.877211338892	21
2	649	195.749471571905	22
2	650	195.849968343652	21
2	654	196.14755923958	22
2	655	197.422075007348	21
2	659	198.4826659984	22
2	660	198.870301974802	21
2	664	198.95677454979	22
2	666	199.466138026111	23
2	668	199.680111522326	24
2	670	199.751891187108	25
2	671	200.109658101438	24
2	675	200.188877154861	25
2	676	201.585814744471	24
2	679	203.152094358256	23
2	683	203.616855790541	24
2	684	204.456263788653	23
2	688	204.712438352931	24
2	690	205.43571403033	25
2	691	205.861182347176	24
2	695	205.946782751974	25
2	696	207.14011906111	24
2	700	207.450037433342	25
2	701	208.559554916484	24
2	705	208.668004469138	25
2	707	209.752193266678	26
2	708	210.044172789952	25
2	712	210.620083056012	26
2	713	211.919867877154	25
2	717	211.966126014435	26
2	718	213.56713708905	25
2	721	215.059819231978	24
2	725	215.665445021983	25
2	726	216.506678477167	24
2	729	217.737391123599	23
2	733	218.054704821337	24
2	735	218.554471039803	25
2	737	218.883842529932	26
2	738	218.979159116237	25
2	742	219.024987004803	26
2	744	219.147311080891	27
2	746	219.590720652927	28
2	748	220.680013399682	29
2	749	220.81377770347	28
2	753	222.324566210241	29
2	754	222.469194820388	28
2	758	223.247793120243	29
2	760	224.10333896722	30
2	761	224.460328400186	29
2	765	224.467037433819	30
2	767	224.994475309234	31
2	768	226.152089768885	30
2	771	227.994310519709	29
2	774	229.696360003999	28
2	778	230.215649689359	29
2	779	231.553333182125	28
2	783	231.613277112049	29
2	785	232.063098640814	30
2	787	232.425091958486	31
2	788	233.055381141281	30
2	792	233.435745902202	31
2	793	235.006192497773	30
2	797	235.212781352257	31
2	799	236.726224767777	32
2	800	236.73626681087	31
2	806	237.416496159079	32
2	807	238.303246193243	31
2	810	239.721609901687	30
2	814	239.90096933303	31
2	816	239.967982824134	32
2	817	241.621617139181	31
2	820	243.450680177895	30
2	823	244.655167440189	29
2	827	245.891701679501	30
2	828	246.05753378631	29
2	833	247.736682944795	28
2	836	249.054097992977	27
2	839	250.34526623567	26
2	843	250.524883138434	27
2	845	250.525521096647	28
2	847	250.541769441685	29
2	848	251.842889361693	28
2	852	253.010466398552	29
2	854	253.023435831045	30
2	855	253.044786155275	29
2	859	253.55471862217	30
2	861	254.131685454227	31
2	863	254.684792820526	32
2	864	254.814014807022	31
2	868	255.502616088675	32
2	869	256.766580435685	31
2	873	257.881021964672	32
2	875	258.041545948666	33
2	876	258.283474672823	32
2	880	258.758854853287	33
2	881	259.530532569303	32
2	884	260.834673005394	31
2	888	261.227593029161	32
2	889	262.10424852991	31
2	893	262.120033188772	32
2	895	262.628554830483	33
2	896	263.647268827869	32
2	900	264.289834928939	33
2	902	264.649810464036	34
2	903	265.038809450021	33
2	906	266.719572815908	32
2	910	267.627450739975	33
2	912	267.726451957294	34
2	914	267.808064676198	35
2	915	268.435755013911	34
2	919	269.618774838731	35
2	920	270.125546942888	34
2	924	271.266468396022	35
2	925	271.476770504615	34
2	928	272.79278539685	33
2	932	272.894281574475	34
2	933	274.762808054364	33
2	937	274.876501859958	34
2	938	276.105039053275	33
2	942	276.935211046099	34
2	943	277.93254243569	33
2	947	278.147825112887	34
2	948	279.238118966348	33
2	952	279.816264114216	34
2	953	280.601928254455	33
2	957	280.882724963221	34
2	959	281.158943886804	35
2	961	281.218631290157	36
2	963	281.860415638303	37
2	964	282.417083182424	36
2	967	284.397397357091	35
2	970	286.037925985507	34
2	974	286.489580931584	35
2	975	287.289851570553	34
2	979	288.222369102003	35
2	981	288.251267260239	36
2	982	288.93566912902	35
2	986	290.34075553084	36
2	987	290.434745231135	35
2	991	291.739366572227	36
2	992	292.069936238093	35
2	995	293.510504475845	34
2	998	295.198568830131	33
2	1002	296.37929630562	34
2	1003	296.917234017751	33
2	1006	298.234446562878	32
2	1010	298.961083518156	33
2	1011	299.794058386474	32
2	1015	299.948348080305	33
2	1017	300.996954842169	34
2	1018	301.07187638232	33
2	1021	302.712521231784	32
2	1025	303.871341060479	33
2	1026	304.583382840692	32
2	1030	305.621631138796	33
2	1032	305.907289705073	34
2	1034	306.119676979092	35
2	1035	306.168343871883	34
2	1039	307.457820761375	35
2	1041	307.482096085383	36
2	1042	308.077907938189	35
2	1046	309.79986459293	36
2	1047	309.815293774805	35
2	1051	310.784508321498	36
2	1053	311.236799562112	37
2	1054	311.743023837409	36
2	1058	311.84591070333	37
2	1060	311.983349001369	38
2	1061	313.371398813142	37
2	1065	314.448442611512	38
2	1066	315.075183385103	37
2	1070	315.970443586728	38
2	1072	316.196855077888	39
2	1073	317.023719382896	38
2	1077	318.415501652386	39
2	1079	318.759598490831	40
2	1080	318.779140683873	39
2	1084	319.105970689487	40
2	1086	319.119715911527	41
2	1088	319.317286018665	42
2	1090	319.675604089448	43
2	1092	319.86455145706	44
2	1094	320.062829370183	45
2	1096	320.295631325913	46
2	1097	320.699426601133	45
2	1101	321.888641304506	46
2	1102	322.17447451265	45
2	1106	322.372795654571	46
2	1107	323.444468953697	45
2	1111	323.618479919489	46
2	1112	325.308140166527	45
2	1116	325.327208897328	46
2	1117	327.09437638638	45
2	1121	327.222000387515	46
2	1122	328.383860264955	45
2	1126	328.873766677738	46
2	1127	330.202429564906	45
2	1131	330.39976655231	46
2	1132	331.934310397742	45
2	1136	332.467236239764	46
2	1137	333.738089253803	45
2	1141	334.183537420923	46
2	1142	335.06773590227	45
2	1146	335.160431710431	46
2	1148	336.351710464452	47
2	1149	336.649083879081	46
2	1153	337.462673633893	47
2	1154	338.242272630011	46
2	1157	340.016862372731	45
2	1161	340.99425271924	46
2	1162	341.821968258594	45
2	1166	342.195582649732	46
2	1167	343.225086233069	45
2	1171	343.78570475673	46
2	1173	344.465083520572	47
2	1174	344.806862872516	46
2	1178	345.098389334125	47
2	1180	345.264296771453	48
2	1181	346.035137069461	47
2	1185	347.117701759596	48
2	1186	347.49238953465	47
2	1189	349.24184312099	46
2	1193	350.562082548702	47
2	1194	350.925417562252	46
2	1198	351.708674944352	47
2	1199	352.254099716669	46
2	1202	353.968481200239	45
2	1206	354.261153738639	46
2	1208	354.28850563845	47
2	1210	354.872163117653	48
2	1211	355.372700792602	47
2	1215	355.77683375784	48
2	1218	356.599822802706	47
2	1223	358.088211054778	46
2	1227	358.832216099814	47
2	1228	359.582467613979	46
2	1232	360.23249816478	47
2	1234	360.440393260596	48
2	1235	360.971836316078	47
2	1239	361.799061810495	48
2	1241	361.902606204309	49
2	1242	362.736901022731	48
2	1246	363.182949870596	49
2	1248	364.001637073907	50
2	1249	364.548191529563	49
2	1253	365.677812964072	50
2	1254	366.283275672844	49
2	1258	366.632508818801	50
2	1259	368.114118773913	49
2	1262	369.770117443105	48
2	1265	371.058903112126	47
2	1269	371.233489741945	48
2	1270	372.681529874404	47
2	1274	373.179500746302	48
2	1276	373.221605363854	49
2	1278	373.412889298357	50
2	1279	374.302996453133	49
2	1283	375.371868274788	50
2	1285	375.566900211225	51
2	1286	376.174073722635	50
2	1290	376.316193829473	51
2	1292	376.946413940461	52
2	1293	377.574412867476	51
2	1297	377.709449939579	52
2	1299	378.847958847614	53
2	1300	378.863636197944	52
2	1305	380.712383577463	51
2	1309	381.69868478151	52
2	1310	382.373256144722	51
2	1314	383.097880734884	52
2	1315	384.094685240884	51
2	1318	385.37434942541	50
2	1322	385.717041997692	51
2	1323	386.92879061499	50
2	1327	387.670164320408	51
2	1328	388.367533085731	50
2	1331	390.058681186524	49
2	1335	391.363824387299	50
2	1336	392.044284320672	49
2	1340	392.446932201008	50
2	1342	392.459107968298	51
2	1343	394.029023527031	50
2	1347	394.322386437303	51
2	1348	395.400406982613	50
2	1352	396.900292536545	51
2	1353	396.954948651468	50
2	1357	398.694843431543	51
2	1358	398.727795058352	50
2	1362	398.865130241025	51
2	1363	400.566099535164	50
2	1367	401.214349197367	51
2	1368	401.857720501584	50
2	1372	402.189652601406	51
2	1373	403.286232668024	50
2	1377	404.274043175923	51
2	1378	404.907342232254	50
2	1382	404.917213005304	51
2	1384	405.77255253209	52
2	1387	406.538973064397	51
2	1391	407.782623990422	52
2	1392	407.82293899325	51
2	1396	408.448065108108	52
2	1397	409.064424001661	51
2	1401	409.899886033006	52
2	1403	409.958773222304	53
2	1405	409.961238907466	54
2	1406	410.38687745319	53
2	1409	412.283346265231	52
2	1412	413.981007961605	51
2	1418	415.164566661962	52
2	1419	415.311249657955	51
2	1423	415.344615045244	52
2	1425	416.112131067265	53
2	1426	416.895800269257	52
2	1430	417.621368383589	53
2	1432	418.012736560919	54
2	1433	418.39300480378	53
2	1437	419.096214491727	54
2	1438	419.934516113299	53
2	1441	421.424756207551	52
2	1445	421.445189632598	53
2	1446	423.375035763952	52
2	1449	424.991095196131	51
2	1453	425.42658201718	52
2	1454	426.380484066206	51
2	1457	427.697660834762	50
2	1461	428.293756041815	51
2	1463	428.408043973303	52
2	1464	429.529011867615	51
2	1467	431.399548305991	50
2	1471	431.767121419102	51
2	1473	431.917786645742	52
2	1475	432.268321018479	53
2	1477	432.431968756475	54
2	1478	433.169173256728	53
2	1482	433.533088455225	54
2	1484	433.546683465434	55
2	1486	434.097710714837	56
2	1487	434.938790517907	55
2	1491	435.395300575203	56
2	1492	436.884457458231	55
2	1496	437.043801574577	56
2	1498	438.411205405802	57
2	1499	438.534735090706	56
2	1503	439.719100753935	57
2	1504	440.274468563731	56
2	1507	441.710529281992	55
2	1511	442.003335396624	56
2	1512	443.057200122486	55
2	1516	443.740756320913	56
2	1517	444.96346462113	55
2	1521	445.644658179135	56
2	1522	446.19409934045	55
2	1526	447.337767268029	56
2	1528	447.364271438201	57
2	1530	447.38324136243	58
2	1531	448.073668978598	57
2	1535	449.070461242622	58
2	1536	449.304883517373	57
2	1539	450.528607468169	56
2	1542	451.737750285167	55
2	1545	453.203225484725	54
2	1548	454.452370347876	53
2	1551	456.130909153681	52
2	1554	458.03964535338	51
2	1558	458.043543049621	52
2	1560	458.242985738758	53
2	1562	459.46489543721	54
2	1563	459.569352368313	53
2	1567	459.58291219813	54
2	1568	460.834883997637	53
2	1572	461.568759463439	54
2	1573	462.56523918179	53
2	1576	463.77876703092	52
2	1580	463.826839005212	53
2	1582	464.720289887434	54
2	1583	465.667802493508	53
2	1586	467.188503838937	52
2	1590	468.111786935714	53
2	1591	468.618016394648	52
2	1595	469.870243108347	53
2	1596	469.899722881104	52
2	1599	471.21220186283	51
2	1603	471.214014365727	52
2	1604	472.595206351067	51
2	1608	473.100972602287	52
2	1609	474.441401794228	51
2	1613	475.705252340315	52
2	1615	475.791658040086	53
2	1616	475.81751858988	52
2	1619	477.44628141639	51
2	1623	477.57219292123	52
2	1625	478.125089529045	53
2	1627	479.042836667649	54
2	1628	479.134624175962	53
2	1631	480.338749253612	52
2	1635	480.471706973088	53
2	1637	480.978126834408	54
2	1638	481.558540279839	53
2	1642	482.089399086544	54
2	1644	482.617902179059	55
2	1645	482.895814699355	54
2	1649	483.36134388597	55
2	1651	483.440699307362	56
2	1653	483.628824348429	57
2	1655	484.374259867796	58
2	1656	484.745345885355	57
2	1660	484.865267123772	58
2	1662	485.322564563871	59
2	1663	486.203598796066	58
2	1666	487.914005539056	57
2	1670	488.86566788407	58
2	1671	489.391922740687	57
2	1675	490.281121665985	58
2	1676	490.913348224808	57
2	1680	490.974875172766	58
2	1682	491.958910007017	59
2	1683	492.892361491222	58
2	1686	494.159113242526	57
2	1690	494.79228472757	58
2	1692	494.924567660182	59
2	1694	494.925727442341	60
2	1695	495.455655439247	59
2	1699	496.542447480979	60
2	1700	496.934963869539	59
2	1704	498.475422486746	60
2	1705	498.509393574533	59
2	1709	498.785056690378	60
2	1711	499.541145477166	61
2	1712	500.456072226402	60
2	1716	501.758133766098	61
2	1717	502.289505622957	60
2	1721	503.291673136028	61
2	1722	504.210463615555	60
2	1726	504.874573585595	61
2	1727	505.678301000829	60
2	1731	505.846575004688	61
2	1732	507.190605531308	60
2	1735	508.563163992996	59
2	1739	508.671352285243	60
2	1740	509.821967092576	59
2	1744	510.020626110619	60
2	1745	511.265254963236	59
2	1748	512.94560188991	58
2	1752	513.313764623185	59
2	1753	514.31625233111	58
2	1757	514.729617425912	59
2	1758	516.262903980399	58
2	1762	517.061585830855	59
2	1763	517.784342284175	58
2	1766	519.569164395752	57
2	1769	521.287732342864	56
2	1773	521.692066547511	57
2	1775	521.979719094502	58
2	1776	523.238491932536	57
2	1780	523.527984319088	58
2	1782	523.694797194525	59
2	1784	524.130931166645	60
2	1785	525.130303905951	59
2	1789	525.934876194204	60
2	1791	526.72765324911	61
2	1792	526.800755434716	60
2	1796	527.098995114968	61
2	1797	528.298650298314	60
2	1801	529.424667261048	61
2	1802	529.60862553888	60
2	1806	529.794728296892	61
2	1807	531.284045993956	60
2	1811	532.954217396638	61
2	1812	533.078004064085	60
2	1816	533.089506828848	61
2	1818	533.256509801229	62
2	1820	533.615818129901	63
2	1821	534.597469936358	62
2	1825	534.603654283782	63
2	1826	535.867394017475	62
2	1829	537.304004980112	61
2	1833	537.717693129657	62
2	1834	538.660480032163	61
2	1838	539.102197133081	62
2	1840	539.43219451812	63
2	1841	539.907906383137	62
2	1845	541.590935952765	63
2	1846	541.730700120377	62
2	1850	543.158449057671	63
2	1851	543.674657600048	62
2	1855	544.274253642154	63
2	1857	544.339124291804	64
2	1858	545.614403686906	63
2	1862	545.618989835311	64
2	1864	545.849881031071	65
2	1865	546.973410593207	64
2	1869	548.760053400579	65
2	1870	548.837142245519	64
2	1873	550.19445565329	63
2	1876	551.980899080123	62
2	1880	553.335156540197	63
2	1881	553.734780904698	62
2	1885	554.747161721531	63
2	1887	554.847992932413	64
2	1888	555.003394981894	63
2	1892	556.131522415121	64
2	1893	556.446018214199	63
2	1897	556.701700746689	64
2	1899	557.462043754795	65
2	1900	558.296060593288	64
2	1904	558.324892994917	65
2	1906	558.756341596189	66
2	1909	560.262526275638	65
2	1912	561.886302032928	64
2	1916	563.143884788396	65
2	1917	563.35565880579	64
2	1921	563.715850040592	65
2	1922	564.579423653382	64
2	1926	565.187833301938	65
2	1927	566.575786244358	64
2	1930	567.784924139689	63
2	1933	569.232941833745	62
2	1937	571.164361919097	63
2	1938	571.173347886513	62
2	1942	572.042269170201	63
2	1943	572.459357762198	62
2	1947	572.68217086624	63
2	1948	573.905715718168	62
2	1951	575.344873141918	61
2	1955	575.370167330439	62
2	1956	577.241606672901	61
2	1960	578.124381116792	62
2	1961	579.16519007818	61
2	1964	580.417533614907	60
2	1968	580.675309336025	61
2	1970	581.115039571713	62
2	1972	581.967137534367	63
2	1973	582.191164519127	62
2	1977	582.668325129938	63
2	1979	583.479612369894	64
2	1981	583.521150950664	65
2	1982	584.016140908051	64
2	1985	585.623242385361	63
2	1989	585.896681136943	64
2	1991	585.911289145453	65
2	1993	586.387487649592	66
2	1995	586.942791876608	67
2	1997	587.162841950001	68
2	1998	587.264015992965	67
2	2001	588.554094068568	66
2	2006	589.773850658584	65
2	2009	591.172974878411	64
2	2013	591.984758232127	65
2	2014	592.572332149792	64
2	2017	594.404392039638	63
2	2021	595.083584711067	64
2	2022	595.777380288441	63
2	2026	595.8673872001	64
2	2028	597.105574628208	65
2	2029	597.184117732805	64
2	2033	597.745656317437	65
2	2034	598.663554205422	64
2	2038	599.688134879599	65
2	2039	600.497958004151	64
2	2043	601.525657798353	65
2	2047	601.966684751917	66
2	2048	602.000664958034	65
2	2052	602.387425712164	66
2	2053	603.681226309624	65
2	2057	604.5155695448	66
2	2058	605.179846616324	65
2	2062	605.565571021868	66
2	2063	606.629000069063	65
2	2067	607.527212656813	66
2	2068	608.039652418952	65
2	2072	608.481332652355	66
2	2074	608.646739389633	67
2	2075	609.44472756968	66
2	2079	610.412549620639	67
2	2080	611.354710876617	66
2	2084	612.529482580759	67
2	2085	613.262774998929	66
2	2089	613.542799263665	67
2	2091	613.701494814091	68
2	2092	614.490848493438	67
2	2095	615.739707032453	66
2	2099	615.748609228959	67
2	2101	617.32876314385	68
2	2103	617.501812042776	69
2	2104	617.63165345886	68
2	2108	618.216224411959	69
2	2109	619.317666029793	68
2	2113	619.324238705433	69
2	2114	620.628588558596	68
2	2117	622.2413277254	67
2	2120	624.001395170999	66
2	2123	625.26264218991	65
2	2126	627.183555387941	64
2	2130	627.479214007432	65
2	2132	628.279904956663	66
2	2134	628.902655902869	67
2	2135	629.034421505269	66
2	2139	629.536852241549	67
2	2141	630.219685018981	68
2	2142	630.869404186357	67
2	2145	632.681643686865	66
2	2149	633.244160209002	67
2	2150	634.658043887143	66
2	2154	635.589874494907	67
2	2156	635.626325126886	68
2	2158	636.340575604305	69
2	2159	636.554537842845	68
2	2163	636.983662565784	69
2	2165	637.957571430639	70
2	2166	638.090794250605	69
2	2170	638.279153035124	70
2	2172	638.517717664401	71
2	2173	639.704148973202	70
2	2177	641.076809587129	71
2	2178	641.25371609745	70
2	2181	643.234099170616	69
2	2184	644.838988593271	68
2	2188	646.115340870116	69
2	2189	646.788290242715	68
2	2193	647.584838560253	69
2	2195	648.285270581218	70
2	2197	648.403986371978	71
2	2198	648.592615909925	70
2	2202	648.81245134741	71
2	2203	649.975010951286	70
2	2207	650.539026513223	71
2	2209	650.916189850735	72
2	2210	651.881461911512	71
2	2213	653.431881188465	70
2	2217	653.719652070952	71
2	2219	654.102528616217	72
2	2220	654.72288979744	71
2	2224	655.010856024792	72
2	2225	656.404755274629	71
2	2228	657.897818447886	70
2	2231	659.56974388366	69
2	2235	661.278628816637	70
2	2236	661.377135037308	69
2	2240	661.948928199398	70
2	2241	662.978752751884	69
2	2245	663.73942625127	70
2	2247	664.173517563497	71
2	2248	664.274805755404	70
2	2252	665.734796726738	71
2	2254	666.068976566269	72
2	2255	666.091880074379	71
2	2259	667.539653330343	72
2	2260	667.694015143116	71
2	2264	668.357489864137	72
2	2265	669.07330254135	71
2	2269	669.401668940694	72
2	2271	670.128518413474	73
2	2272	670.283191218649	72
2	2276	670.78621003186	73
2	2278	671.380537238041	74
2	2279	671.647503467885	73
2	2283	672.534806573395	74
2	2285	672.679874204563	75
2	2287	673.028763003379	76
2	2288	673.330376829443	75
2	2291	674.964310778914	74
2	2294	676.253391963666	73
2	2298	676.858388062171	74
2	2300	677.516863219848	75
2	2301	677.641379806449	74
2	2304	679.145560018395	73
2	2308	679.725986305985	74
2	2310	679.89634795208	75
2	2313	680.873056407695	74
2	2317	681.934112367733	75
2	2318	682.249284348128	74
2	2321	683.889047319306	73
2	2324	685.508588285794	72
2	2328	686.120034165477	73
2	2330	687.016243982228	74
2	2331	687.407456131516	73
2	2335	688.472959117239	74
2	2336	688.870840745842	73
2	2340	689.76424309407	74
2	2342	690.648950001187	75
2	2343	690.833387730135	74
2	2347	691.686509889461	75
2	2348	692.486866663447	74
2	2352	693.21624642525	75
2	2354	693.355254892572	76
2	2355	694.147311629219	75
2	2358	695.918811746551	74
2	2362	696.702443942666	75
2	2363	697.504331760904	74
2	2367	698.19994064352	75
2	2368	699.371434753439	74
2	2374	699.627815866766	75
2	2376	700.325375392108	76
2	2377	700.591386310435	75
2	2380	702.101041792757	74
2	2384	702.245888221323	75
2	2386	702.370208260276	76
2	2388	702.747724788944	77
2	2389	703.770098583638	76
2	2392	705.669125040486	75
2	2396	706.791527039698	76
2	2397	707.414436690002	75
2	2402	709.214445789955	74
2	2406	710.037611920501	75
2	2407	710.657879918307	74
2	2411	711.53581419108	75
2	2412	712.60432822188	74
2	2415	714.223654228874	73
2	2418	715.765582969651	72
2	2422	717.159336510657	73
2	2423	717.379799479857	72
2	2426	719.326578445226	71
2	2430	719.63155234596	72
2	2431	720.54918277809	71
2	2435	721.393339993659	72
2	2436	722.02116350723	71
2	2439	723.457679262809	70
2	2443	724.53010769777	71
2	2445	725.090522069289	72
2	2446	725.231479420006	71
2	2450	725.379612570699	72
2	2451	727.096501802332	71
2	2454	728.853105004556	70
2	2458	728.914735240997	71
2	2460	729.095510140109	72
2	2461	730.274480560287	71
2	2464	732.045207798532	70
2	2468	732.768276555815	71
2	2470	733.669920790539	72
2	2471	733.704649934596	71
2	2475	734.51253868285	72
2	2476	735.32284433139	71
2	2480	735.577055294246	72
2	2481	736.982550657219	71
2	2485	738.154877702743	72
2	2487	738.550191446686	73
2	2488	738.719420816055	72
2	2491	740.10306755477	71
2	2494	741.699351452528	70
2	2498	742.15780830385	71
2	2499	743.247875438681	70
2	2502	744.650295651196	69
2	2505	746.0708671846	68
2	2508	748.064878816208	67
2	2512	748.906188673634	68
2	2513	749.272150774164	67
2	2517	749.443580485484	68
2	2518	751.234466554088	67
2	2522	752.077324137472	68
2	2523	753.224527313237	67
2	2527	753.800900284494	68
2	2529	753.906122073232	69
2	2531	754.470566316033	70
2	2532	755.163912684333	69
2	2536	755.811998853961	70
2	2537	756.950288911771	69
2	2541	757.112141174579	70
2	2543	757.280816093508	71
2	2545	757.40952719334	72
2	2547	757.48561166026	73
2	2549	758.089773996457	74
2	2550	758.823740102027	73
2	2553	760.492643614162	72
2	2556	761.694806836035	71
2	2559	763.306793195616	70
2	2563	763.817609119822	71
2	2565	764.506543553703	72
2	2566	765.056542025182	71
2	2572	765.835957955735	72
2	2575	766.505091727759	71
2	2579	767.776739057359	72
2	2580	767.905713342737	71
2	2584	768.205575860762	72
2	2586	768.793793545878	73
2	2589	769.669996937412	72
2	2593	770.669725535682	73
2	2594	771.034589759494	72
2	2598	771.114650581716	73
2	2600	771.570459671918	74
2	2601	772.681472799043	73
2	2605	773.876481698268	74
2	2607	774.081192184276	75
2	2609	774.260479561271	76
2	2610	774.497134213197	75
2	2613	775.739323630045	74
2	2617	775.949924434702	75
2	2619	776.582168726781	76
2	2620	777.530769799883	75
2	2623	779.02346648709	74
2	2627	779.030614204497	75
2	2629	779.111026783679	76
2	2631	779.897249030998	77
2	2633	780.731102617302	78
2	2635	780.740785939354	79
2	2636	780.81260018577	78
2	2639	782.738428379084	77
2	2645	783.976012014168	78
2	2647	784.212628010869	79
2	2648	784.313533413458	78
2	2651	785.72290465464	77
2	2655	785.755838695357	78
2	2656	787.208951376799	77
2	2660	788.321147811733	78
2	2661	788.795492956835	77
2	2664	790.76159534962	76
2	2668	791.314248402911	77
2	2669	792.138551575924	76
2	2672	793.527677235427	75
2	2676	793.549890697787	76
2	2678	794.459927506498	77
2	2679	795.126942436631	76
2	2683	795.256971138063	77
2	2684	796.454126491073	76
2	2688	798.098569809122	77
2	2689	798.328829246249	76
2	2693	799.885184963384	77
2	2694	800.325815058548	76
2	2698	800.410238796943	77
2	2700	800.440616046163	78
2	2702	801.098420100662	79
2	2704	801.119723577972	80
2	2705	801.921430127371	79
2	2709	803.649384212794	80
2	2710	803.694900524851	79
2	2713	804.979338560674	78
2	2717	805.07209302236	79
2	2718	806.355064616587	78
2	2721	808.082473920893	77
2	2725	809.61682789931	78
2	2726	809.96639142805	77
2	2729	811.751457020689	76
2	2733	812.818892605143	77
2	2734	813.62349415147	76
2	2738	814.136880708287	77
2	2739	815.36908803941	76
2	2743	815.744886951772	77
2	2745	816.015240902327	78
2	2747	816.698445119772	79
2	2748	817.168307886508	78
2	2752	817.371967754721	79
2	2754	817.895998903364	80
2	2756	818.581470360863	81
2	2757	818.687328592178	80
2	2760	820.598567676966	79
2	2763	822.324547785384	78
2	2767	822.710872145552	79
2	2768	823.896767089566	78
2	2771	825.151836138269	77
2	2774	827.033792820251	76
2	2778	827.618396195353	77
2	2779	828.861592473885	76
2	2783	829.175030491604	77
2	2785	829.624843163003	78
2	2786	830.299624333208	77
2	2790	830.549235594417	78
2	2791	831.813937174765	77
2	2795	832.779778807579	78
2	2797	833.239708853298	79
2	2799	833.532938607253	80
2	2801	833.672093849338	81
2	2802	833.787775933792	80
2	2806	834.475594580776	81
2	2808	834.74961829805	82
2	2810	835.279847102887	83
2	2811	835.568901792777	82
2	2815	835.848170426949	83
2	2816	837.327102164787	82
2	2819	838.593475585666	81
2	2823	840.357379157489	82
2	2824	840.5484619007	81
2	2827	842.378091844779	80
2	2831	842.65915471122	81
2	2833	842.911944664343	82
2	2835	843.112515746011	83
2	2837	843.461296233648	84
2	2838	844.22732156371	83
2	2842	844.507872172532	84
2	2843	845.77224739441	83
2	2846	847.738517169518	82
2	2850	847.792984943067	83
2	2852	848.173444712561	84
2	2854	848.605216097216	85
2	2856	848.619922030243	86
2	2857	849.14059184627	85
2	2860	850.524128088219	84
2	2863	851.734582980586	83
2	2866	853.279287859475	82
2	2869	854.79561073189	81
2	2873	855.006300051097	82
2	2875	855.334675594782	83
2	2877	855.546211056193	84
2	2878	856.332740675522	83
2	2882	856.449051799419	84
2	2883	858.332170154018	83
2	2887	858.337946792494	84
2	2888	860.101163410073	83
2	2891	861.873498115925	82
2	2895	862.039281179116	83
2	2896	863.331956847621	82
2	2900	863.523919363069	83
2	2901	864.755288757434	82
2	2904	866.281530699743	81
2	2908	866.559779803709	82
2	2909	867.845892207002	81
2	2913	868.675368530889	82
2	2914	869.332153292423	81
2	2917	871.019534743441	80
2	2920	872.953946854597	79
2	2924	873.641138185132	80
2	2925	874.393801020509	79
2	2929	875.005907882986	80
2	2931	875.173728797171	81
2	2932	875.758022415875	80
2	2936	876.616487892849	81
2	2938	876.635836024089	82
2	2939	877.354917171835	81
2	2943	878.133617124598	82
2	2944	878.789324212871	81
2	2948	879.3247677734	82
2	2949	880.23243774423	81
2	2953	881.152137613363	82
2	2954	881.522972176649	81
2	2958	881.787687027115	82
2	2960	881.862196547033	83
2	2961	883.090102263034	82
2	2965	883.938396264449	83
2	2966	884.960572774202	82
2	2970	886.517801262485	83
2	2971	886.848576716386	82
2	2975	887.06074838496	83
2	2977	887.125957542194	84
2	2978	888.247949202784	83
2	2982	889.323498606415	84
2	2983	889.645569654421	83
2	2987	890.786649520716	84
2	2988	890.897593013064	83
2	2991	892.635536697746	82
2	2994	894.33828467285	81
2	2998	895.18366297882	82
2	3000	895.392804057379	83
2	3001	895.571367405595	82
2	3007	896.990244730138	83
2	3008	897.151261350939	82
2	3012	897.496166681418	83
2	3014	898.414989243591	84
2	3015	899.002519634793	83
2	3021	900.449281721865	84
2	3023	900.556352826823	85
2	3024	900.682789052332	84
2	3028	901.375321028081	85
2	3030	901.552208409013	86
2	3031	902.172618242594	85
2	3035	902.957433889806	86
2	3037	903.021828688945	87
2	3039	903.100228891215	88
2	3040	903.620991980153	87
2	3044	905.062852523121	88
2	3045	905.129738225656	87
2	3051	905.741608836463	88
2	3052	906.784015388655	87
2	3056	907.768616820459	88
2	3057	908.090173553357	87
2	3061	909.615021895456	88
2	3062	909.869619373473	87
2	3066	910.309231566681	88
2	3067	911.207894403728	87
2	3071	911.510952545127	88
2	3073	911.875212033315	89
2	3074	912.48082954293	88
2	3077	914.022483601103	87
2	3081	914.086432502833	88
2	3083	914.416715389158	89
2	3085	914.498293755583	90
2	3087	914.750935506734	91
2	3088	915.703658753688	90
2	3091	916.918182407933	89
2	3095	917.343080063632	90
2	3097	917.942583662172	91
2	3098	918.639055362026	90
2	3101	919.92877792796	89
2	3105	920.956457762438	90
2	3106	921.172168153207	89
2	3110	922.33382241181	90
2	3111	922.535085617992	89
2	3114	924.533830363731	88
2	3118	924.633784583423	89
2	3119	926.479001176971	88
2	3123	926.564547190515	89
2	3125	926.959729133076	90
2	3127	927.380753646041	91
2	3129	927.682395895221	92
2	3130	928.367125768269	91
2	3134	928.806517607105	92
2	3135	929.980554927009	91
2	3138	931.631192229743	90
2	3142	932.965754234523	91
2	3143	933.546565313878	90
2	3147	934.800082534786	91
2	3148	935.001589061188	90
2	3151	936.498219272549	89
2	3155	936.849320792627	90
2	3157	937.646735313909	91
2	3158	937.965807995069	90
2	3162	938.337403156224	91
2	3164	939.2458102472	92
2	3165	939.55624748418	91
2	3169	940.116932536362	92
2	3170	940.889311265814	91
2	3174	941.227246252427	92
2	3175	942.57567711329	91
2	3179	942.912749793618	92
2	3180	943.838665319662	91
2	3184	944.297979747028	92
2	3185	945.393928183112	91
2	3189	946.029265184658	92
2	3190	946.86912635142	91
2	3194	947.072710037605	92
2	3195	948.240365956035	91
2	3199	948.883043012135	92
2	3200	950.015426930469	91
2	3204	950.769512135472	92
2	3205	951.782776343879	91
2	3208	953.654667044674	90
2	3212	954.219491369012	91
2	3213	954.854757524711	90
2	3217	955.930331997904	91
2	3219	956.704914105131	92
2	3220	956.809641667326	91
2	3224	957.756778764046	92
2	3225	958.32059786847	91
2	3229	959.428480585487	92
2	3231	959.76440602649	93
2	3232	959.938538987992	92
2	3236	960.661033921513	93
2	3237	961.221844636706	92
2	3240	962.766499560383	91
2	3244	962.768525118291	92
2	3246	963.485597593304	93
2	3247	964.061768711788	92
2	3251	965.266687644328	93
2	3252	965.638592218851	92
2	3255	966.882303411757	91
2	3259	966.939826021513	92
2	3261	968.592992995936	93
2	3263	968.599192022357	94
2	3264	968.63057582142	93
2	3267	970.112346672883	92
2	3271	971.336831834292	93
2	3272	971.617125836817	92
2	3275	972.909716938866	91
2	3278	974.189594738615	90
2	3282	974.895998595631	91
2	3283	975.721557270048	90
2	3288	977.591273893846	89
2	3292	978.524398709918	90
2	3294	979.021204301591	91
2	3296	979.040381781805	92
2	3297	979.29262480518	91
2	3301	979.522540492982	92
2	3302	980.668316020688	91
2	3306	980.820372789664	92
2	3307	982.256956937222	91
2	3311	982.92006825852	92
2	3313	983.31747645515	93
2	3314	983.556901802926	92
2	3319	985.392671571544	91
2	3322	987.283002853079	90
2	3326	987.676335598916	91
2	3328	989.02184740319	92
2	3329	989.163297955191	91
2	3332	990.655385598039	90
2	3336	991.915731996334	91
2	3338	992.313012972198	92
2	3340	992.417614854042	93
2	3341	992.502839316858	92
2	3344	994.075321622996	91
2	3347	995.964999634272	90
2	3350	997.307848126872	89
2	3354	997.8500090803	90
2	3355	998.711130272283	89
2	3359	999.442279522856	90
2	3360	1000.037975820399	89
2	3363	1001.59428579422	88
2	3366	1002.826540990419	87
2	3370	1003.296645429792	88
2	3372	1003.823655606826	89
2	3373	1004.069994758128	88
2	3377	1004.41723711407	89
2	3378	1005.429580425157	88
2	3382	1006.167664675852	89
2	3384	1006.361207415915	90
2	3385	1007.236460837035	89
2	3389	1008.171114822687	90
2	3390	1009.10817792943	89
2	3393	1011.101468281693	88
2	3396	1012.427688014194	87
2	3399	1013.959481096513	86
2	3403	1014.253604434858	87
2	3405	1015.304035834284	88
2	3407	1015.381896759806	89
2	3408	1015.708677355818	88
2	3412	1015.921464000845	89
2	3414	1016.257257446961	90
2	3416	1016.936318346489	91
2	3417	1017.045901754558	90
2	3421	1017.186110721324	91
2	3422	1018.931935414173	90
2	3426	1019.143741189415	91
2	3428	1019.731968952202	92
2	3430	1020.029489702784	93
2	3432	1020.639349516976	94
2	3434	1020.812526843519	95
2	3435	1020.910284809083	94
2	3439	1021.644157315745	95
2	3440	1022.556757318661	94
2	3443	1024.542319152005	93
2	3447	1024.809437676184	94
2	3449	1025.185971039158	95
2	3450	1026.337149766333	94
2	3454	1027.256019552343	95
2	3456	1027.389356401496	96
2	3457	1027.733840916179	95
2	3460	1028.948581473403	94
2	3464	1029.104591676658	95
2	3466	1029.974408169416	96
2	3468	1030.1978789315	97
2	3469	1030.263220701799	96
2	3472	1031.529190495111	95
2	3476	1032.903439202842	96
2	3478	1033.177493529047	97
2	3479	1033.185578312039	96
2	3483	1034.640385696871	97
2	3484	1034.97441653224	96
2	3488	1034.977179482638	97
2	3490	1035.422169647657	98
2	3492	1035.894963570726	99
2	3493	1036.851845866687	98
2	3497	1037.664821172378	99
2	3499	1038.271403791398	100
2	3501	1038.410731889576	101
2	3502	1038.79860491684	100
2	3506	1039.489332317885	101
2	3508	1039.763442770923	102
2	3509	1040.546086233727	101
2	3512	1041.989994324616	100
2	3516	1043.203438872883	101
2	3517	1043.57035026761	100
2	3521	1043.770477889575	101
2	3522	1045.424596911541	100
2	3526	1046.354060760132	101
2	3527	1047.079058457224	100
2	3530	1048.919264391681	99
2	3534	1048.976163462956	100
2	3535	1050.262094060389	99
2	3538	1051.9821852869	98
2	3542	1052.910471275443	99
2	3543	1053.206423833838	98
2	3547	1053.766061002896	99
2	3549	1053.8481558567	100
2	3551	1053.921870968521	101
2	3553	1053.94669298164	102
2	3555	1054.206496366786	103
2	3557	1054.305582295113	104
2	3558	1054.552942420787	103
2	3562	1054.831943068574	104
2	3564	1055.323358428498	105
2	3565	1056.019226461521	104
2	3569	1056.154577186473	105
2	3571	1057.135784587742	106
2	3573	1057.993000681112	107
2	3574	1058.00535011912	106
2	3577	1059.764146121836	105
2	3581	1060.332096229584	106
2	3582	1061.353460737376	105
2	3585	1062.802002967952	104
2	3589	1063.023780714858	105
2	3591	1063.404004418139	106
2	3593	1064.195844899627	107
2	3595	1064.389862517497	108
2	3596	1064.599881375453	107
2	3599	1066.199723441398	106
2	3603	1066.22779697056	107
2	3605	1067.930923187053	108
2	3606	1067.944355828	107
2	3610	1068.67223237794	108
2	3612	1069.453256446622	109
2	3613	1069.879151684662	108
2	3617	1070.961076231774	109
2	3618	1071.558422900421	108
2	3621	1072.918213870806	107
2	3624	1074.187471952905	106
2	3628	1075.030321486155	107
2	3629	1075.970727045705	106
2	3633	1077.766416710884	107
2	3634	1077.821374626515	106
2	3638	1078.757242609952	107
2	3640	1078.840990921896	108
2	3641	1079.114784842787	107
2	3645	1079.326977280592	108
2	3646	1080.957811143493	107
2	3649	1082.461136404855	106
2	3653	1083.422986446537	107
2	3654	1083.888364416046	106
2	3658	1084.05673914441	107
2	3660	1084.30593930728	108
2	3661	1085.867269934772	107
2	3665	1086.063496280053	108
2	3667	1087.337022282793	109
2	3668	1087.818682975939	108
2	3672	1088.944244920956	109
2	3673	1089.755508847407	108
2	3677	1090.402798681583	109
2	3679	1090.505350321893	110
2	3681	1091.06604338315	111
2	3682	1091.3828958145	110
2	3685	1092.670920388087	109
2	3689	1093.64686539935	110
2	3690	1094.055537836126	109
2	3694	1094.931616207181	110
2	3695	1095.51380785486	109
2	3698	1096.928089206166	108
2	3704	1097.076377349307	109
2	3706	1098.329764350942	110
2	3707	1098.732231289394	109
2	3711	1100.168253758643	110
2	3712	1100.401203749016	109
2	3716	1100.609731663618	110
2	3718	1100.796467067703	111
2	3719	1102.37682547687	110
2	3722	1104.249745990023	109
2	3726	1104.823518731974	110
2	3727	1105.747544442363	109
2	3731	1107.006791470177	110
2	3733	1107.190097044983	111
2	3734	1107.413150506712	110
2	3738	1107.51559383035	111
2	3740	1107.801996548322	112
2	3741	1108.678138018086	111
2	3745	1109.279757354768	112
2	3747	1109.892568705351	113
2	3748	1110.091654611624	112
2	3752	1110.346968229517	113
2	3753	1111.705650499522	112
2	3758	1113.068401588186	111
2	3762	1114.202109839115	112
2	3763	1114.532561824343	111
2	3766	1116.463801731414	110
2	3770	1117.131110933226	111
2	3771	1118.238480214833	110
2	3775	1119.603053282878	111
2	3777	1119.826592094017	112
2	3778	1120.002509666293	111
2	3782	1120.955787689579	112
2	3783	1121.586085208192	111
2	3787	1121.593459255188	112
2	3788	1122.897237381398	111
2	3792	1123.054804512605	112
2	3793	1124.132832817606	111
2	3797	1124.482110525744	112
2	3798	1125.839299699351	111
2	3802	1126.872557951579	112
2	3803	1127.151728391148	111
2	3806	1129.018234312221	110
2	3809	1130.852329440288	109
2	3813	1131.548563364981	110
2	3814	1132.838410138026	109
2	3817	1134.604272486515	108
2	3821	1134.900880271215	109
2	3823	1135.349339622125	110
2	3825	1135.671428526933	111
2	3827	1135.848192201768	112
2	3828	1136.497931563355	111
2	3832	1136.941974000875	112
2	3833	1138.403948978581	111
2	3836	1139.628803756893	110
2	3839	1141.415471759312	109
2	3842	1143.133182277031	108
2	3845	1144.760482204765	107
2	3848	1146.191442026071	106
2	3852	1146.437388207725	107
2	3854	1146.810746925942	108
2	3856	1147.313788671239	109
2	3857	1148.17971890109	108
2	3861	1149.420119056472	109
2	3862	1149.892202585995	108
2	3866	1151.384936872047	109
2	3867	1151.476660732053	108
2	3871	1151.534432324169	109
2	3873	1152.372256774726	110
2	3874	1153.051963215008	109
2	3877	1154.996906591825	108
2	3881	1156.134284707428	109
2	3883	1156.154577987217	110
2	3884	1156.670621698595	109
2	3887	1158.116971655249	108
2	3891	1158.71478635858	109
2	3892	1159.748773386947	108
2	3898	1160.40115572883	109
2	3900	1161.615057562969	110
2	3901	1161.676315627306	109
2	3907	1162.533085682744	110
2	3909	1163.503944903831	111
2	3910	1163.578035828716	110
2	3914	1163.887612554531	111
2	3916	1163.929839523065	112
2	3917	1164.874508302904	111
2	3921	1165.5211200889	112
2	3922	1166.700204501174	111
2	3925	1168.248221159972	110
2	3928	1170.121345543362	109
2	3932	1171.115908988431	110
2	3933	1171.42428261625	109
2	3937	1172.014599260401	110
2	3938	1173.247805261858	109
2	3942	1174.315405765652	110
2	3943	1174.471165446811	109
2	3947	1175.174220231628	110
2	3948	1176.196521484167	109
2	3952	1177.197612789812	110
2	3953	1177.79345972842	109
2	3957	1178.586130578866	110
2	3958	1179.157385053359	109
2	3962	1180.296607286886	110
2	3963	1180.77925374607	109
2	3966	1182.307723022871	108
2	3970	1182.846861763175	109
2	3971	1184.037962509938	108
2	3975	1184.606702655765	109
2	3976	1185.335077147432	108
2	3980	1185.338963715806	109
2	3982	1185.817950720206	110
2	3985	1186.950606329426	109
2	3989	1187.37887655215	110
2	3990	1188.486610291771	109
2	3993	1189.880901743158	108
2	3997	1190.384636139192	109
2	3999	1191.018280863969	110
2	4000	1191.271515241138	109
2	4004	1192.66188392187	110
2	4005	1193.168397793978	109
2	4009	1193.445394101854	110
2	4010	1195.158936560958	109
2	4013	1196.508132986411	108
2	4016	1198.494916335552	107
2	4019	1200.086625916197	106
2	4023	1200.61751446526	107
2	4025	1201.845672288523	108
2	4026	1201.949590515404	107
2	4030	1202.523746080695	108
2	4032	1203.123130004905	109
2	4033	1203.192091082281	108
2	4037	1203.391380860562	109
2	4039	1203.549920380319	110
2	4040	1205.145514883718	109
2	4043	1206.682170993893	108
2	4047	1206.695835596279	109
2	4048	1208.025371517486	108
2	4052	1208.89628587235	109
2	4053	1209.476586807019	108
2	4057	1209.87457738631	109
2	4058	1211.404442658893	108
2	4061	1212.729518804385	107
2	4065	1213.192070776947	108
2	4067	1213.306957787717	109
2	4068	1214.185942446499	108
2	4072	1214.490027873892	109
2	4074	1215.779807241346	110
2	4075	1215.869966887369	109
2	4079	1217.548045965192	110
2	4080	1217.778354277521	109
2	4084	1218.275447826092	110
2	4085	1219.141605197698	109
2	4089	1219.763025185905	110
2	4091	1220.511400250831	111
2	4092	1221.07283347255	110
2	4096	1221.287334456207	111
2	4098	1221.724100244462	112
2	4099	1222.868648441941	111
2	4103	1224.064645797188	112
2	4105	1224.160585168201	113
2	4106	1224.406459006727	112
2	4110	1224.68099979336	113
2	4111	1225.812825103537	112
2	4115	1226.322450500586	113
2	4117	1226.624932392173	114
2	4118	1227.037089977474	113
2	4122	1227.967073842866	114
2	4124	1228.310049477246	115
2	4125	1228.841833650009	114
2	4129	1229.231172157356	115
2	4130	1230.667315546298	114
2	4134	1231.997318719411	115
2	4135	1232.558396168114	114
2	4139	1233.004050218921	115
2	4141	1233.515962646115	116
2	4142	1234.22359711031	115
2	4145	1235.583119842844	114
2	4148	1236.945459792638	113
2	4152	1237.025434056467	114
2	4154	1238.238000498116	115
2	4157	1238.887434039699	114
2	4160	1240.534679460401	113
2	4164	1240.78568285388	114
2	4166	1241.253468093072	115
2	4167	1242.008342614832	114
2	4171	1242.99863725814	115
2	4172	1243.361744229744	114
2	4176	1244.672644430852	115
2	4177	1245.113168740148	114
2	4181	1245.174159107349	115
2	4185	1246.345531192963	116
2	4186	1246.792884626674	115
2	4189	1248.195613155017	114
2	4192	1249.828426395977	113
2	4196	1250.657608335192	114
2	4197	1251.174787606733	113
2	4201	1251.670136974724	114
2	4203	1252.037371308569	115
2	4204	1252.843030044684	114
2	4208	1252.865864778571	115
2	4210	1253.763820071869	116
2	4211	1254.204972650917	115
2	4214	1256.109654720561	114
2	4218	1256.756205950159	115
2	4219	1257.562777477191	114
2	4225	1258.910160821587	115
2	4227	1259.007594276702	116
2	4228	1259.0836837473	115
2	4232	1259.118308986926	116
2	4233	1260.659998557591	115
2	4237	1260.868396692533	116
2	4238	1262.119798342944	115
2	4242	1262.978014301311	116
2	4243	1263.768507048734	115
2	4247	1264.041500426121	116
2	4248	1265.237892684587	115
2	4251	1266.51611314869	114
2	4255	1266.584814469752	115
2	4257	1267.095410855784	116
2	4258	1267.887574165002	115
2	4262	1269.166848089752	116
2	4263	1269.591491632969	115
2	4267	1270.581167000155	116
2	4268	1271.244787720838	115
2	4272	1272.125808645618	116
2	4273	1273.221816529208	115
2	4277	1273.49595500476	116
2	4278	1274.648361647562	115
2	4282	1275.952973504743	116
2	4283	1276.556284017363	115
2	4286	1277.960542035164	114
2	4290	1278.322060177906	115
2	4291	1279.193815898584	114
2	4295	1280.396119896422	115
2	4296	1280.858469593586	114
2	4300	1281.459082620971	115
2	4301	1282.146087698886	114
2	4305	1282.80150406175	115
2	4307	1283.147543120529	116
2	4308	1283.395609541671	115
2	4312	1284.058353511112	116
2	4314	1284.367986775792	117
2	4316	1284.893405893677	118
2	4318	1284.937059547611	119
2	4319	1285.190164286891	118
2	4322	1287.112868012922	117
2	4326	1287.561557362086	118
2	4329	1288.940660122844	117
2	4333	1289.924307098431	118
2	4334	1290.865335588592	117
2	4337	1292.461460019338	116
2	4341	1292.915154147769	117
2	4342	1293.820802081625	116
2	4346	1294.61916988444	117
2	4348	1295.032622365673	118
2	4349	1295.414978975493	117
2	4353	1296.320135733843	118
2	4355	1296.373316637132	119
2	4356	1296.94564218695	118
2	4360	1298.055470460399	119
2	4361	1298.660429175447	118
2	4364	1300.467063987318	117
2	4369	1301.888189793627	116
2	4373	1303.165314971677	117
2	4374	1303.736009943548	116
2	4377	1305.110604319598	115
2	4381	1306.047724978551	116
2	4382	1306.600585034552	115
2	4386	1308.108243298162	116
2	4387	1308.124511139343	115
2	4391	1308.640953674566	116
2	4392	1310.109236780243	115
2	4396	1311.018031549945	116
2	4397	1311.41694844632	115
2	4401	1312.232877565178	116
2	4402	1313.018381048055	115
2	4406	1314.097152007825	116
2	4407	1314.31121001883	115
2	4413	1314.765806758951	116
2	4415	1315.062351310344	117
2	4416	1315.875432223143	116
2	4420	1315.983343212113	117
2	4422	1316.20435596313	118
2	4423	1317.460757886121	117
2	4426	1318.965663072342	116
2	4429	1320.674677669318	115
2	4433	1321.669565729748	116
2	4435	1321.741820071112	117
2	4437	1322.397270313481	118
2	4438	1322.571167041795	117
2	4442	1322.626208520826	118
2	4443	1323.786909363852	117
2	4447	1323.850396876904	118
2	4448	1325.68291058416	117
2	4452	1325.888073835163	118
2	4454	1326.271753457257	119
2	4455	1327.395877559171	118
2	4458	1329.151495672078	117
2	4462	1329.63319447408	118
2	4464	1329.699011801313	119
2	4465	1330.686535660052	118
2	4468	1332.666308910647	117
2	4474	1332.961429773348	118
2	4475	1334.055685786964	117
2	4479	1334.180148486381	118
2	4481	1334.86745321485	119
2	4482	1335.527529031099	118
2	4486	1337.042571786926	119
2	4487	1337.297705959589	118
2	4490	1338.688972292156	117
2	4494	1339.977410828523	118
2	4495	1340.239413338588	117
2	4499	1340.408286273982	118
2	4500	1342.131110345819	117
2	4504	1343.787778041803	118
2	4505	1343.8348815967	117
2	4510	1345.325982100204	116
2	4514	1345.978732474278	117
2	4515	1347.04021518758	116
2	4519	1347.886435640519	117
2	4521	1348.554902756932	118
2	4522	1348.563752033622	117
2	4526	1349.016222677141	118
2	4527	1350.433524842807	117
2	4531	1350.687035636374	118
2	4532	1351.787067634114	117
2	4536	1352.031261324729	118
2	4537	1353.406438588039	117
2	4540	1354.696663014092	116
2	4544	1355.221333338255	117
2	4545	1356.429560402282	116
2	4548	1358.417867935881	115
2	4551	1360.320690754302	114
2	4555	1361.776330775423	115
2	4556	1362.05738085682	114
2	4559	1363.485891146832	113
2	4563	1364.744342219027	114
2	4564	1365.243800899633	113
2	4568	1366.358897018249	114
2	4570	1367.05198735796	115
2	4571	1367.130272477553	114
2	4574	1368.413299145796	113
2	4577	1369.686217740052	112
2	4581	1370.072079576693	113
2	4582	1371.208139293142	112
2	4586	1372.480348389969	113
2	4587	1372.658514947132	112
2	4591	1372.770533538837	113
2	4593	1373.054170581085	114
2	4594	1374.00288592583	113
2	4597	1375.661024253317	112
2	4601	1376.09163697682	113
2	4603	1376.423282816731	114
2	4605	1376.495540791507	115
2	4606	1377.096891634413	114
2	4610	1377.284993334528	115
2	4612	1377.463776749682	116
2	4613	1378.655272075222	115
2	4616	1379.972794452557	114
2	4620	1380.210958184459	115
2	4622	1380.601247693883	116
2	4623	1381.462534844005	115
2	4627	1382.832575450628	116
2	4628	1382.920646466748	115
2	4632	1383.292872147625	116
2	4634	1383.795192804864	117
2	4636	1384.593153768435	118
2	4637	1384.637476140694	117
2	4641	1385.073832268998	118
2	4643	1385.903294456979	119
2	4644	1386.231906152764	118
2	4648	1386.521796890389	119
2	4649	1387.842680693665	118
2	4653	1388.690197385781	119
2	4654	1389.203235979439	118
2	4658	1389.690555876369	119
2	4659	1391.109236110435	118
2	4662	1392.669290008643	117
2	4665	1393.972492672378	116
2	4669	1394.579711695297	117
2	4671	1394.664251912923	118
2	4672	1395.262716681571	117
2	4675	1396.494064113931	116
2	4679	1397.091862420971	117
2	4680	1398.028093634979	116
2	4684	1398.105950205239	117
2	4686	1398.524782195435	118
2	4688	1398.899742376922	119
2	4690	1399.830624069424	120
2	4691	1399.835112394081	119
2	4695	1400.662840887997	120
2	4696	1401.651605865048	119
2	4700	1401.738581332563	120
2	4702	1402.453010461345	121
2	4703	1403.369037361691	120
2	4706	1404.845556244502	119
2	4710	1405.879483838758	120
2	4711	1406.132932582559	119
2	4714	1407.930695204126	118
2	4718	1408.52908200948	119
2	4720	1408.628845135011	120
2	4722	1409.042038624871	121
2	4723	1409.649272600809	120
2	4726	1411.18933951153	119
2	4729	1412.481097594337	118
2	4732	1414.135931690843	117
2	4735	1415.662959643514	116
2	4739	1416.442723761435	117
2	4741	1416.490125218482	118
2	4743	1416.924703174827	119
2	4744	1417.441278369599	118
2	4748	1417.745139973024	119
2	4750	1417.884513409083	120
2	4751	1419.13252212523	119
2	4755	1419.184680094773	120
2	4757	1419.374054825192	121
2	4758	1421.040200777226	120
2	4762	1421.814080146972	121
2	4763	1422.607870306694	120
2	4767	1423.142337082906	121
2	4769	1423.212810745995	122
2	4770	1424.329869872578	121
2	4774	1425.257523244316	122
2	4775	1425.638643696964	121
2	4779	1425.649778436639	122
2	4781	1426.840037566465	123
2	4782	1427.435194980599	122
2	4786	1428.369538295496	123
2	4787	1428.657880977042	122
2	4791	1428.902150376785	123
2	4792	1429.961439194404	122
2	4796	1430.322413286671	123
2	4797	1431.497843740941	122
2	4801	1431.960607226147	123
2	4803	1432.418633089617	124
2	4804	1433.098168695592	123
2	4808	1434.613649873452	124
2	4809	1434.707772454121	123
2	4813	1435.181515173742	124
2	4814	1436.478100849376	123
2	4818	1436.827155182752	124
2	4819	1437.921514787772	123
2	4822	1439.388652027832	122
2	4825	1441.376403175542	121
2	4829	1441.461735429962	122
2	4831	1442.609993595182	123
2	4832	1442.926081364849	122
2	4836	1443.201029487237	123
2	4837	1444.343640818135	122
2	4841	1444.424648181922	123
2	4843	1444.49114052184	124
2	4845	1444.834551304785	125
2	4846	1445.889037218192	124
2	4850	1447.121909604416	125
2	4851	1447.775386939445	124
2	4855	1449.119429981063	125
2	4856	1449.668909495385	124
2	4860	1450.975591861241	125
2	4861	1451.079725746685	124
2	4865	1451.117002083979	125
2	4867	1451.843224267993	126
2	4868	1452.548136186847	125
2	4872	1452.630168797798	126
2	4874	1453.293372613943	127
2	4875	1453.97445392801	126
2	4879	1454.046582309835	127
2	4881	1455.201251497391	128
2	4882	1455.386986818598	127
2	4886	1455.450081810774	128
2	4887	1457.134270176539	127
2	4891	1458.158955891769	128
2	4892	1458.341359712617	127
2	4896	1458.911129319569	128
2	4897	1459.635514892699	127
2	4901	1459.830454182871	128
2	4902	1460.924718177939	127
2	4905	1462.274417087311	126
2	4909	1463.24682684714	127
2	4911	1463.332492286843	128
2	4912	1463.996268422218	127
2	4915	1465.245892309645	126
2	4919	1466.143303270167	127
2	4920	1467.012066080482	126
2	4924	1467.823214839113	127
2	4925	1469.000078261146	126
2	4929	1470.739108642628	127
2	4931	1470.775122430635	128
2	4932	1470.813744709702	127
2	4936	1470.82901027771	128
2	4937	1472.65399931992	127
2	4940	1474.087679757425	126
2	4944	1474.262496658056	127
2	4946	1474.589193985634	128
2	4947	1475.910048424327	127
2	4951	1475.9631239358	128
2	4953	1476.296125823555	129
2	4954	1477.736147514233	128
2	4958	1478.742754916242	129
2	4959	1479.412309594886	128
2	4963	1479.787577624587	129
2	4964	1480.635773974718	128
2	4968	1481.288797311967	129
2	4971	1482.175004006611	128
2	4975	1483.682774467653	129
2	4976	1484.034338986562	128
2	4980	1484.402010036591	129
2	4981	1485.576471528286	128
2	4985	1485.642957892808	129
2	4988	1486.94855799737	128
2	4992	1487.223207495545	129
2	4993	1488.673205890382	128
2	4996	1490.03004079281	127
2	5000	1490.049130045571	128
2	5002	1491.088478242273	129
2	5003	1491.41694319124	128
2	5007	1491.800564114907	129
2	5008	1493.367617283823	128
2	5011	1495.028469018327	127
2	5014	1496.968987376863	126
2	5018	1497.39326908541	127
2	5019	1498.497629190856	126
2	5023	1499.620350136101	127
2	5025	1499.724998913209	128
2	5026	1500.153329915987	127
2	5030	1500.381907836213	128
2	5031	1501.839550523335	127
2	5036	1503.173684792841	126
2	5039	1505.000724393377	125
2	5042	1506.45037816471	124
2	5046	1506.738359280001	125
2	5048	1507.559674836705	126
2	5049	1508.345630893545	125
2	5053	1508.909257206711	126
2	5055	1509.078419465872	127
2	5057	1509.82170361768	128
2	5058	1510.327178288126	127
2	5062	1510.635162606464	128
2	5064	1511.111663349733	129
2	5065	1511.823176981942	128
2	5068	1513.390308891298	127
2	5074	1514.262326882548	128
2	5076	1514.614592282515	129
2	5077	1514.751342865327	128
2	5081	1515.595886299821	129
2	5083	1516.178634303883	130
2	5085	1516.298771105771	131
2	5086	1516.587196831653	130
2	5090	1517.311556967509	131
2	5092	1518.422532136961	132
2	5093	1518.428400141062	131
2	5096	1520.061748523326	130
2	5100	1520.950389032889	131
2	5103	1521.888104538308	130
2	5107	1522.323152586214	131
2	5109	1522.342125460014	132
2	5110	1523.328040842773	131
2	5113	1524.780651542233	130
2	5117	1525.339435913522	131
2	5120	1526.563031418683	130
2	5123	1528.14722368593	129
2	5127	1529.257795715327	130
2	5129	1529.283831380935	131
2	5130	1529.480763353097	130
2	5134	1530.879783176513	131
2	5136	1530.959321974078	132
2	5137	1531.439998295965	131
2	5141	1532.623310247528	132
2	5142	1532.826067847262	131
2	5146	1534.618389321968	132
2	5147	1534.82315083916	131
2	5151	1534.847644234191	132
2	5153	1535.298960266586	133
2	5154	1536.103303787919	132
2	5158	1536.241774603405	133
2	5160	1537.149387094491	134
2	5161	1537.826508033524	133
2	5166	1539.173499792131	132
2	5169	1540.785602252806	131
2	5173	1540.999698143571	132
2	5174	1541.999182215395	131
2	5178	1542.325615006432	132
2	5179	1543.438874855327	131
2	5184	1545.096675825367	130
2	5187	1546.939167966383	129
2	5190	1548.769415581102	128
2	5194	1548.879212075475	129
2	5195	1550.517991270932	128
2	5199	1550.539421401327	129
2	5200	1552.061359776805	128
2	5203	1553.300001600819	127
2	5207	1554.670879481349	128
2	5208	1554.690886204751	127
2	5211	1555.972840172114	126
2	5215	1556.122404702499	127
2	5217	1557.793834916951	128
2	5218	1557.817566457825	127
2	5222	1558.72543270056	128
2	5223	1559.624441175597	127
2	5227	1559.651926764065	128
2	5228	1561.279155380341	127
2	5232	1561.675403523571	128
2	5234	1562.982433148933	129
2	5235	1563.148575551311	128
2	5241	1563.644734079469	129
2	5243	1564.48686669112	130
2	5244	1564.906761130752	129
2	5248	1565.372207688999	130
2	5250	1565.673760372966	131
2	5251	1566.692049237588	130
2	5255	1567.662280177755	131
2	5256	1567.927199746171	130
2	5260	1568.968441153235	131
2	5261	1569.682285480263	130
2	5265	1570.390994263217	131
2	5266	1571.039301669473	130
2	5270	1571.260522393386	131
2	5271	1572.986782673994	130
2	5274	1574.421798842834	129
2	5278	1575.548192110399	130
2	5279	1576.204686104009	129
2	5283	1576.344141088063	130
2	5285	1577.436987542054	131
2	5287	1577.737016926603	132
2	5288	1577.907720323341	131
2	5292	1579.28046812709	132
2	5293	1579.463600502597	131
2	5297	1579.593713915252	132
2	5299	1580.894986178298	133
2	5300	1580.99911703101	132
2	5304	1581.108214943538	133
2	5306	1581.369995749622	134
2	5307	1582.979487357909	133
2	5311	1583.228450980676	134
2	5312	1584.954677843364	133
2	5316	1585.483784389669	134
2	5317	1586.58950096021	133
2	5320	1587.906897306876	132
2	5323	1589.732972799489	131
2	5327	1590.325306984092	132
2	5329	1590.742455746193	133
2	5331	1590.787554691627	134
2	5332	1591.073984525973	133
2	5336	1591.689029701748	134
2	5337	1592.918572359966	133
2	5341	1593.104883512441	134
2	5342	1594.855626262786	133
2	5346	1595.207673504876	134
2	5348	1595.787161612089	135
2	5349	1596.205318643773	134
2	5352	1598.121397235306	133
2	5356	1599.338556084546	134
2	5357	1599.82838032941	133
2	5360	1601.549197427059	132
2	5364	1601.802385552521	133
2	5365	1602.845203232082	132
2	5369	1603.166237469889	133
2	5370	1604.710461311849	132
2	5373	1606.372236811618	131
2	5377	1606.818949188542	132
2	5379	1607.480736751601	133
2	5381	1607.657208821842	134
2	5382	1607.927886577571	133
2	5386	1608.715358038415	134
2	5388	1609.502072228244	135
2	5389	1609.612990463214	134
2	5392	1611.158392567435	133
2	5395	1612.990834468851	132
2	5399	1613.557110988243	133
2	5401	1613.972537616166	134
2	5402	1614.762079190152	133
2	5405	1616.72095582957	132
2	5409	1617.134616160942	133
2	5410	1617.986257153252	132
2	5414	1619.096085127326	133
2	5415	1619.470266697431	132
2	5418	1620.862802054049	131
2	5421	1622.239373415583	130
2	5425	1622.588152254239	131
2	5427	1622.878999448021	132
2	5428	1623.473133071014	131
2	5432	1623.812532528172	132
2	5434	1623.89736916897	133
2	5435	1625.27916998385	132
2	5439	1625.794920970653	133
2	5441	1625.958018817983	134
2	5442	1627.046990193674	133
2	5446	1627.960703183574	134
2	5447	1628.958242546269	133
2	5450	1630.385717315288	132
2	5454	1630.728446418942	133
2	5455	1631.6682697768	132
2	5459	1631.719892517666	133
2	5461	1633.110039905546	134
2	5462	1633.15543647545	133
2	5466	1634.497466727865	134
2	5467	1635.019798144201	133
2	5470	1636.323220872382	132
2	5474	1637.840435523931	133
2	5475	1638.256016232135	132
2	5478	1640.188891843396	131
2	5482	1641.132994593746	132
2	5484	1641.619546458079	133
2	5485	1641.965435728493	132
2	5488	1643.94251468281	131
2	5492	1644.228055191796	132
2	5494	1644.571523322988	133
2	5496	1644.635775204743	134
2	5497	1645.237125478002	133
2	5501	1645.393651819937	134
2	5502	1647.175818059842	133
2	5506	1647.387947652672	134
2	5508	1647.469035000485	135
2	5509	1648.717193731728	134
2	5513	1649.452964304	135
2	5515	1649.628110586524	136
2	5516	1649.92968531518	135
2	5519	1651.711475752171	134
2	5523	1652.583699470153	135
2	5525	1652.742605346229	136
2	5526	1653.410301975597	135
2	5529	1655.108005145442	134
2	5533	1655.235252719065	135
2	5535	1655.838544825535	136
2	5537	1656.343269056113	137
2	5538	1656.952836844202	136
2	5542	1657.620366383991	137
2	5544	1658.718940503599	138
2	5545	1658.73749673317	137
2	5549	1659.68861884586	138
2	5550	1660.190261427004	137
2	5554	1661.178995958647	138
2	5555	1661.543275931914	137
2	5559	1662.088532110725	138
2	5561	1662.735975372279	139
2	5563	1662.968206333655	140
2	5564	1663.047114356112	139
2	5568	1663.678691715126	140
2	5569	1664.393379725579	139
2	5573	1665.333334703306	140
2	5574	1665.669303066347	139
2	5578	1665.978556858731	140
2	5579	1667.421972107765	139
2	5583	1667.450141186204	140
2	5584	1668.769267259416	139
2	5588	1669.144893826593	140
2	5589	1670.59909640855	139
2	5593	1670.607911431779	140
2	5594	1672.123696163733	139
2	5597	1673.444499876786	138
2	5600	1674.762061477702	137
2	5604	1675.488368259545	138
2	5606	1675.516126699735	139
2	5608	1676.312149505904	140
2	5609	1676.746640918653	139
2	5612	1678.055565750848	138
2	5615	1679.965940945658	137
2	5618	1681.271514326955	136
2	5622	1681.709449073876	137
2	5624	1683.041001527403	138
2	5626	1683.13181384873	139
2	5627	1683.220048408645	138
2	5631	1683.719983251568	139
2	5633	1684.787071127071	140
2	5634	1684.81841863847	139
2	5638	1684.936188368074	140
2	5640	1685.668196906546	141
2	5641	1686.33618174574	140
2	5645	1686.55467229217	141
2	5647	1686.973077196937	142
2	5649	1688.166060955784	143
2	5650	1688.321088687392	142
2	5653	1690.272196683722	141
2	5657	1691.670953117788	142
2	5658	1691.911465888905	141
2	5662	1692.903911082357	142
2	5663	1693.798952590364	141
2	5667	1695.756303778697	142
2	5668	1695.78374833862	141
2	5672	1695.991474172574	142
2	5674	1697.196045797995	143
2	5675	1697.30230400494	142
2	5678	1699.079578705008	141
2	5682	1700.299270012639	142
2	5683	1700.907520437303	141
2	5687	1701.577885779603	142
2	5688	1702.776187115225	141
2	5692	1704.309084868836	142
2	5693	1704.610603493701	141
2	5697	1704.649517523423	142
2	5699	1704.785335169567	143
2	5701	1705.071938235047	144
2	5704	1706.48710108387	143
2	5707	1707.860875161986	142
2	5710	1709.58759842037	141
2	5716	1710.663216477377	142
2	5717	1710.790042425755	141
2	5721	1711.185535246893	142
2	5723	1711.287585810189	143
2	5725	1711.830537725626	144
2	5727	1711.948591662474	145
2	5728	1712.481631100054	144
2	5732	1713.110248415981	145
2	5733	1713.839855919096	144
2	5737	1714.571972385765	145
2	5738	1715.438423058267	144
2	5742	1716.523402601507	145
2	5744	1716.600334553027	146
2	5745	1716.861397209454	145
2	5748	1718.383467334758	144
2	5752	1719.043887789134	145
2	5754	1719.492121429489	146
2	5755	1720.275345758598	145
2	5759	1720.304062156497	146
2	5760	1721.529405777964	145
2	5764	1722.344504152734	146
2	5765	1722.993524241324	145
2	5768	1724.850597589526	144
2	5771	1726.416498659614	143
2	5774	1727.807339540001	142
2	5778	1729.295545849942	143
2	5779	1729.500490444217	142
2	5783	1729.927780353544	143
2	5785	1730.575036762295	144
2	5786	1730.861714813177	143
2	5789	1732.273267651041	142
2	5793	1732.513713282645	143
2	5795	1732.618931558031	144
2	5797	1733.074772809357	145
2	5799	1733.277750513577	146
2	5800	1734.012648409297	145
2	5804	1735.492065324397	146
2	5805	1735.845996508067	145
2	5809	1736.621216917976	146
2	5810	1737.295863072453	145
2	5814	1737.509880543058	146
2	5815	1738.836141489698	145
2	5818	1740.15155552893	144
2	5822	1740.591560033746	145
2	5823	1741.687419034048	144
2	5827	1741.7028327983	145
2	5828	1743.532660415835	144
2	5832	1745.022616108914	145
2	5833	1745.188207419842	144
2	5836	1746.640051547691	143
2	5840	1747.56631243836	144
2	5841	1748.270722576111	143
2	5844	1750.139159012839	142
2	5848	1750.367557511899	143
2	5849	1751.813997053422	142
2	5853	1752.26609012905	143
2	5855	1753.597817176726	144
2	5856	1753.608985172279	143
2	5860	1753.916535133703	144
2	5862	1754.608902780165	145
2	5863	1755.009455907784	144
2	5866	1756.325239083238	143
2	5870	1757.171082191876	144
2	5872	1757.611390281447	145
2	5873	1758.028094482675	144
2	5877	1759.149035231368	145
2	5878	1759.648880094729	144
2	5882	1761.014293002958	145
2	5883	1761.253838287361	144
2	5887	1761.503874810527	145
2	5888	1763.252389300495	144
2	5891	1764.716315045274	143
2	5895	1764.914870819568	144
2	5897	1765.014633446994	145
2	5898	1766.138958072542	144
2	5902	1766.427977848906	145
2	5903	1767.700860100492	144
2	5907	1768.041113983509	145
2	5908	1769.458726191214	144
2	5911	1770.762359546377	143
2	5915	1771.311463744414	144
2	5917	1771.835267286145	145
2	5918	1772.637492720849	144
2	5921	1773.855413287199	143
2	5925	1774.302931097809	144
2	5926	1775.122397393427	143
2	5929	1776.69261319588	142
2	5933	1777.900153465775	143
2	5934	1777.974409457734	142
2	5938	1778.022227870441	143
2	5940	1778.750941344227	144
2	5942	1778.850975449879	145
2	5943	1779.361885873852	144
2	5946	1780.892014109408	143
2	5950	1780.911667264252	144
2	5952	1780.942686021521	145
2	5954	1782.135759166999	146
2	5955	1782.777400811454	145
2	5959	1783.844467065286	146
2	5960	1784.327840090794	145
2	5963	1785.774007152458	144
2	5966	1787.360806156201	143
2	5970	1787.413493545637	144
2	5972	1787.83952386073	145
2	5974	1788.017360323571	146
2	5975	1788.615626755422	145
2	5979	1789.402769101273	146
2	5980	1789.822706673918	145
2	5983	1791.431578746689	144
2	5986	1792.703050896218	143
2	5990	1793.129740206966	144
2	5992	1793.55654469999	145
2	5993	1794.64697190511	144
2	5996	1796.035860115168	143
2	6000	1796.748041683379	144
2	6001	1797.279820480076	143
2	6005	1797.800568413555	144
2	6006	1798.628472364572	143
2	6010	1798.874152361554	144
2	6012	1799.784438012945	145
2	6013	1800.224622327526	144
2	6016	1801.577529301745	143
2	6019	1803.117211781693	142
2	6023	1803.229621874962	143
2	6027	1804.201105067271	144
2	6028	1804.356750315306	143
2	6034	1805.372773075618	144
2	6035	1805.952000912902	143
2	6041	1807.35729411206	144
2	6042	1807.455430501577	143
2	6046	1808.020960576464	144
2	6047	1809.277983241965	143
2	6051	1809.912045392152	144
2	6052	1810.693739124079	143
2	6056	1810.847265153745	144
2	6058	1811.99577294839	145
2	6059	1812.07566126014	144
2	6063	1812.523860659014	145
2	6064	1813.655164124136	144
2	6067	1814.986984216486	143
2	6070	1816.282468015578	142
2	6074	1816.474722793905	143
2	6076	1817.726529229484	144
2	6078	1817.893361492304	145
2	6079	1818.2411596541	144
2	6083	1818.544702413133	145
2	6085	1819.046703120887	146
2	6086	1819.866564930667	145
2	6090	1820.694252141423	146
2	6092	1820.952067874294	147
2	6094	1820.992519481517	148
2	6095	1821.730970109504	147
2	6098	1823.194613018882	146
2	6102	1823.592147203621	147
2	6104	1824.199533071095	148
2	6105	1824.808657254715	147
2	6109	1825.931311182234	148
2	6112	1826.356932912086	147
2	6116	1826.735594935016	148
2	6118	1826.800944015779	149
2	6120	1826.91181948837	150
2	6121	1827.564458366175	149
2	6125	1828.116237876123	150
2	6126	1828.944534095813	149
2	6130	1829.276612350952	150
2	6132	1830.436857275637	151
2	6133	1830.687624527391	150
2	6137	1831.259561881407	151
2	6138	1832.33145600545	150
2	6142	1832.56683655523	151
2	6143	1833.995354824204	150
2	6146	1835.671064300898	149
2	6150	1836.770196682399	150
2	6151	1837.34689205854	149
2	6155	1837.994052473008	150
2	6156	1838.58145425177	149
2	6159	1840.285998246696	148
2	6163	1840.92378452303	149
2	6165	1841.157285271312	150
2	6166	1841.859801230084	149
2	6170	1842.035919421977	150
2	6172	1843.614493528451	151
2	6173	1843.80463855515	150
2	6177	1844.147461729941	151
2	6178	1845.248972878668	150
2	6181	1847.123167643386	149
2	6184	1848.428487774792	148
2	6188	1848.499826308526	149
2	6189	1850.306299982096	148
2	6192	1851.903860328968	147
2	6196	1851.97004563733	148
2	6199	1853.468868073139	147
2	6203	1854.093736570132	148
2	6205	1855.341214588608	149
2	6206	1855.44363110556	148
2	6209	1856.76803772046	147
2	6213	1857.832644801307	148
2	6215	1858.119421971062	149
2	6217	1858.157950070645	150
2	6218	1858.540814187627	149
2	6222	1859.006018218067	150
2	6223	1860.292826238524	149
2	6226	1862.249198491935	148
2	6230	1862.369690576358	149
2	6232	1862.632093492987	150
2	6233	1863.900837695849	149
2	6237	1864.107892732476	150
2	6238	1865.812716371816	149
2	6242	1866.155731868347	150
2	6243	1867.62956833734	149
2	6246	1869.62653468686	148
2	6250	1869.915840603575	149
2	6251	1870.978177638043	148
2	6255	1871.423700666771	149
2	6257	1872.373469766732	150
2	6258	1872.429049212363	149
2	6262	1874.028636997427	150
2	6263	1874.241803595115	149
2	6266	1875.682225632731	148
2	6270	1876.069122703101	149
2	6272	1876.92927036293	150
2	6273	1877.275451907952	149
2	6277	1878.258127355245	150
2	6279	1878.454993048957	151
2	6280	1878.477601929818	150
2	6284	1878.89315818716	151
2	6285	1880.177106912312	150
2	6288	1881.41483425877	149
2	6292	1881.473447948004	150
2	6293	1882.698953015236	149
2	6297	1883.623109252499	150
2	6300	1884.420891793882	149
2	6303	1886.1350100788	148
2	6308	1888.090527981212	147
2	6312	1888.635758206103	148
2	6314	1889.394135782445	149
2	6315	1889.990100948764	148
2	6319	1890.556338803929	149
2	6320	1891.497840059241	148
2	6324	1891.772188371318	149
2	6325	1892.70898959252	148
2	6329	1894.0860759696	149
2	6330	1894.38549330092	148
2	6335	1896.084184144502	147
2	6339	1896.461631885576	148
2	6341	1897.150058241239	149
2	6343	1897.215112251234	150
2	6344	1897.434575277073	149
2	6348	1897.476731479221	150
2	6350	1897.921952635851	151
2	6351	1899.13194512303	150
2	6354	1900.587819520077	149
2	6360	1902.245469187424	150
2	6361	1902.408139905772	149
2	6365	1903.104940974864	150
2	6366	1904.321835325538	149
2	6370	1905.157965786979	150
2	6371	1906.062590834192	149
2	6375	1906.648983469239	150
2	6376	1907.782529294371	149
2	6380	1907.913249776456	150
2	6381	1909.751615907318	149
2	6384	1911.056608523308	148
2	6388	1912.120835960925	149
2	6389	1912.765609887308	148
2	6393	1914.089566092275	149
2	6394	1914.098553895457	148
2	6398	1915.092878058805	149
2	6399	1915.707632535575	148
2	6403	1916.323661338422	149
2	6404	1917.592295856839	148
2	6408	1917.712651253384	149
2	6409	1919.319727909258	148
2	6413	1919.552746257471	149
2	6414	1920.695236528172	148
2	6418	1921.477536015452	149
2	6419	1922.457744416474	148
2	6423	1923.823421002838	149
2	6424	1924.379558919436	148
2	6428	1925.75058888706	149
2	6430	1925.943932755879	150
2	6431	1926.180926639839	149
2	6435	1927.300316396091	150
2	6436	1927.832924402012	149
2	6440	1928.160349464724	150
2	6441	1929.272685892946	149
2	6445	1930.199139040739	150
2	6446	1930.808994094535	149
2	6450	1931.190131127854	150
2	6451	1932.025274351119	149
2	6454	1933.883021893232	148
2	6458	1934.829221327696	149
2	6460	1935.143812067939	150
2	6461	1935.343824654884	149
2	6464	1936.75253147713	148
2	6467	1938.156713107481	147
2	6471	1939.227117600522	148
2	6472	1939.784179219484	147
2	6476	1940.267214162988	148
2	6477	1941.601729517124	147
2	6480	1943.26266933947	146
2	6484	1943.844872261049	147
2	6486	1944.278271490011	148
2	6488	1944.351059647265	149
2	6490	1944.533806607786	150
2	6491	1944.910704787515	149
2	6495	1945.163409398804	150
2	6497	1945.593675957882	151
2	6498	1946.305080312744	150
2	6501	1948.10496994301	149
2	6505	1949.359652613845	150
2	6507	1949.840187881448	151
2	6509	1949.840570727019	152
2	6510	1949.994182441638	151
2	6514	1951.559372175713	152
2	6515	1951.94171209398	151
2	6520	1953.178346669183	150
2	6524	1953.63696402611	151
2	6525	1954.432530306161	150
2	6529	1954.808353160828	151
2	6530	1956.296544457667	150
2	6534	1956.932029874639	151
2	6536	1958.020249435085	152
2	6537	1958.074799477376	151
2	6540	1959.803856119022	150
2	6544	1961.096849659555	151
2	6546	1961.393716070273	152
2	6547	1961.450376178019	151
2	6551	1962.080677022871	152
2	6553	1962.421694533321	153
2	6555	1962.797283866972	154
2	6557	1963.064957039398	155
2	6558	1963.070758983001	154
2	6561	1964.430459005453	153
2	6565	1965.259654211944	154
2	6567	1966.04771806667	155
2	6568	1966.208222861842	154
2	6572	1966.720499641217	155
2	6573	1967.45932744208	154
2	6577	1967.784387721213	155
2	6579	1968.441878107673	156
2	6580	1968.862963418544	155
2	6584	1969.243591194407	156
2	6586	1969.401847092781	157
2	6587	1970.603863210113	156
2	6591	1971.533066791759	157
2	6593	1971.592175222734	158
2	6594	1972.261834264429	157
2	6597	1973.464471820811	156
2	6601	1974.292934357111	157
2	6602	1975.35348197713	156
2	6606	1976.218717518906	157
2	6607	1976.980904979515	156
2	6611	1977.03398572821	157
2	6612	1978.374903438497	156
2	6616	1979.462000435135	157
2	6617	1979.608754094015	156
2	6621	1980.957177961887	157
2	6623	1981.102173654556	158
2	6624	1981.427481808397	157
2	6628	1981.629617587981	158
2	6630	1981.772960406463	159
2	6631	1983.370176007482	158
2	6635	1984.024891185142	159
2	6637	1984.257194005269	160
2	6638	1984.748446319508	159
2	6642	1985.341466002046	160
2	6644	1985.726651308964	161
2	6646	1986.029188838276	162
2	6647	1986.339685014705	161
2	6650	1987.905864649708	160
2	6654	1988.077953339585	161
2	6656	1989.111639195954	162
2	6657	1989.189122053305	161
2	6661	1989.638418543979	162
2	6662	1990.62671709794	161
2	6666	1991.373547326256	162
2	6668	1991.754125946377	163
2	6669	1992.322235760721	162
2	6673	1992.718537444322	163
2	6674	1994.192923307675	162
2	6678	1994.513304448519	163
2	6680	1995.48937797903	164
2	6682	1995.773809307109	165
2	6683	1995.801830228674	164
2	6687	1996.236562390315	165
2	6688	1997.072996402229	164
2	6691	1998.288479808788	163
2	6694	2000.08395068578	162
2	6698	2000.38822993934	163
2	6700	2001.033754924431	164
2	6702	2001.36658301879	165
2	6704	2001.590275879838	166
2	6705	2001.700261406112	165
2	6708	2003.488919586014	164
2	6711	2005.391005166691	163
2	6715	2006.657136565162	164
2	6716	2006.664469778609	163
2	6720	2007.38457387271	164
2	6721	2008.581655696292	163
2	6725	2009.655803947467	164
2	6726	2010.477849992622	163
2	6729	2012.377389905487	162
2	6732	2013.754011799839	161
2	6735	2015.191960347143	160
2	6739	2015.244448177583	161
2	6740	2017.113072083962	160
2	6744	2017.607631604822	161
2	6746	2018.3271534418	162
2	6748	2018.486281285898	163
2	6749	2018.743404050615	162
2	6753	2019.143107459243	163
2	6754	2020.198158727471	162
2	6758	2020.210477265018	163
2	6759	2021.752092219774	162
2	6762	2023.264668901895	161
2	6766	2025.129582857059	162
2	6767	2025.193549654146	161
2	6770	2026.444713897516	160
2	6774	2026.723722691285	161
2	6776	2027.276432261592	162
2	6777	2027.832145494294	161
2	6781	2027.925474229802	162
2	6782	2029.468994775113	161
2	6786	2029.5457698965	162
2	6788	2030.716433208181	163
2	6790	2030.835361073118	164
2	6791	2030.945842915844	163
2	6795	2031.793206679402	164
2	6797	2032.114824135645	165
2	6798	2032.489878048632	164
2	6801	2034.198868381489	163
2	6805	2035.286907834827	164
2	6806	2035.607345236164	163
2	6810	2035.951622969522	164
2	6812	2036.638296540285	165
2	6813	2037.069404343587	164
2	6816	2038.54232267074	163
2	6820	2040.062990576881	164
2	6821	2040.18945903301	163
2	6825	2040.210849898406	164
2	6826	2041.415549130251	163
2	6830	2042.385338245404	164
2	6831	2042.897498840352	163
2	6835	2043.97400630575	164
2	6837	2044.112046160554	165
2	6838	2044.57356200095	164
2	6844	2044.751735408259	165
2	6846	2045.032564876918	166
2	6848	2045.90987818245	167
2	6849	2046.259625015852	166
2	6853	2046.532725141702	167
2	6854	2047.894703545493	166
2	6858	2048.182586608039	167
2	6859	2049.30584052473	166
2	6863	2049.684965367144	167
2	6864	2050.508438234103	166
2	6868	2051.447733606703	167
2	6869	2052.313233211522	166
2	6872	2053.735617205386	165
2	6875	2055.16283938836	164
2	6879	2055.272055040963	165
2	6881	2056.388581411726	166
2	6882	2056.407467392717	165
2	6886	2056.702191248906	166
2	6888	2058.120210690809	167
2	6889	2058.259313372408	166
2	6893	2058.819675052101	167
2	6895	2059.443427069591	168
2	6897	2059.495437634619	169
2	6899	2059.775265038997	170
2	6900	2060.131160899882	169
2	6904	2061.247575367798	170
2	6905	2062.025070913208	169
2	6909	2063.041587658832	170
2	6910	2063.364833075625	169
2	6914	2063.726513882171	170
2	6916	2064.399743570713	171
2	6917	2064.735667283905	170
2	6921	2064.883873655211	171
2	6923	2065.477826881689	172
2	6925	2065.603769995016	173
2	6926	2066.090900833418	172
2	6930	2067.438187382851	173
2	6931	2067.54935337573	172
2	6935	2068.557683608107	173
2	6936	2069.063039475937	172
2	6939	2070.308099023697	171
2	6943	2070.517432678434	172
2	6944	2071.586927886565	171
2	6948	2071.606368438549	172
2	6950	2072.138496258968	173
2	6951	2073.009067093094	172
2	6954	2074.461681075652	171
2	6958	2074.663031548155	172
2	6959	2076.161380340603	171
2	6962	2077.497980645557	170
2	6966	2077.718699423108	171
2	6968	2078.093717917685	172
2	6970	2078.716254109665	173
2	6971	2078.819081000683	172
2	6975	2078.911076221445	173
2	6976	2080.497049632368	172
2	6979	2081.983567977396	171
2	6983	2082.094649445903	172
2	6985	2083.637396153845	173
2	6986	2083.779273408723	172
2	6990	2083.901661606415	173
2	6991	2085.600304380876	172
2	6995	2086.260214352991	173
2	6997	2086.670937279384	174
2	6999	2087.189011495207	175
2	7000	2087.565269847845	174
2	7004	2087.860168308439	175
2	7005	2089.233207883013	174
2	7011	2090.790234372365	175
2	7012	2090.873025075232	174
2	7016	2091.229969818973	175
2	7017	2092.34180535197	174
2	7021	2092.831433936589	175
2	7022	2093.699464820584	174
2	7026	2094.228090750894	175
2	7027	2095.101743645852	174
2	7031	2096.054594441304	175
2	7032	2096.46935167562	174
2	7035	2097.975672300605	173
2	7039	2098.53620958693	174
2	7041	2098.942622737237	175
2	7042	2099.626873555107	174
2	7046	2100.382829001964	175
2	7047	2100.994850901401	174
2	7051	2101.291144037757	175
2	7052	2102.249892931691	174
2	7056	2102.707083301164	175
2	7057	2104.115664696767	174
2	7061	2104.276191533266	175
2	7062	2106.114857496022	174
2	7066	2106.223987561401	175
2	7067	2107.497708899787	174
2	7071	2108.036407126753	175
2	7072	2108.877463177106	174
2	7076	2109.770029036357	175
2	7077	2110.230044666192	174
2	7081	2111.104754761551	175
2	7082	2112.227268762215	174
2	7086	2112.426309725819	175
2	7087	2114.111023184544	174
2	7091	2114.143270835674	175
2	7093	2115.028891952896	176
2	7094	2115.579518315083	175
2	7098	2115.890061840804	176
2	7099	2117.329053522533	175
2	7102	2119.02628734324	174
2	7106	2120.292741222754	175
2	7107	2120.643884167148	174
2	7110	2122.197449150196	173
2	7114	2122.87185081442	174
2	7116	2123.082436422538	175
2	7118	2123.281562905774	176
2	7119	2123.709998981355	175
2	7122	2125.58453471016	174
2	7126	2125.999900772846	175
2	7128	2126.10749031689	176
2	7129	2127.314423361494	175
2	7133	2127.660695092047	176
2	7134	2129.037546224034	175
2	7138	2129.361991980021	176
2	7139	2130.820836513749	175
2	7143	2132.114387065756	176
2	7144	2132.283181297107	175
2	7148	2133.375275271032	176
2	7149	2133.74028390765	175
2	7153	2134.905557608746	176
[...]
5	76012	22775.061954541548	10965.614039843
5	76150	22813.170418502433	4401.7640967297
5	76155	22814.451576108342	9591.4556346583
5	76175	22821.466406576751	9592.0546335979
5	76190	22825.502926648266	10989.241037267
5	76225	22836.808587775423	2315.6582233386
5	76272	22851.868299569234	20708.053747808
5	76301	22859.460239656313	6333.4666608896
5	76333	22868.68863253039	2322.6565281584
5	76349	22875.283227393261	2323.3074249996
5	76455	22907.170095623515	4420.3071131509
5	76526	22932.270028865942	8089.6590164422
5	76562	22940.93123378572	4434.4102037756
5	76574	22944.104904186027	4434.2060033509
5	76749	22998.809994926539	12329.682392359
5	76756	23000.483179665406	11056.746162745
5	76761	23002.026985487764	11058.117699299
5	76814	23015.915932843513	9687.3622634542
5	76847	23024.602692587166	11079.461175697
5	76857	23027.882737400434	6393.3682368502
5	76864	23029.397085879608	2337.5818982504
5	76872	23032.226203561626	2338.3408954739
5	76891	23040.401999684661	2339.636822688
5	76897	23043.384708185172	8137.7691622209
5	76914	23048.720969053036	9695.6749891998
5	77053	23088.881941049037	2349.7328305304
5	77056	23090.461504752798	12365.752423222
5	77162	23119.667193754625	4473.3438439973
5	77183	23126.8883357788	9729.5191970693
5	77208	23134.15601354414	6421.4074511957
5	77211	23135.455165976895	12384.750775921
5	77334	23172.250008644775	8177.8318559169
5	77378	23185.143492094851	2365.1950112932
5	77388	23188.144128452665	20396.833663155
5	77488	23220.353881663881	20415.479556142
5	77567	23241.262799564054	14608.792244198
5	77666	23272.302292796275	8210.899641787
5	77730	23292.549067869462	6469.3880352478
5	77768	23305.309645396151	2368.5783844498
5	77814	23317.843844697117	9814.4705456318
5	77889	23337.971175709605	6484.624978207
5	77926	23348.271294096537	17747.946870623
5	78097	23401.801689685003	11257.802613797
5	78138	23412.854716605561	17145.0888852
5	78251	23444.398444851542	6507.201026068
5	78320	23465.382384302523	6514.6138340226
5	78347	23473.745456215982	6510.5813673688
5	78368	23478.767115192172	16476.723267782
5	78373	23480.135307316539	2395.1325730997
5	78398	23487.718171240447	2395.5229586424
5	78418	23494.139190552069	12585.212596767
5	78426	23497.703790798283	6519.2392164446
5	78433	23499.413554095349	12581.325874286
5	78464	23507.206795067957	2398.0216793582
5	78678	23570.371365693086	4554.5020488203
5	78696	23576.745069385939	4555.9985444482
5	78723	23585.717724754348	2409.0315293211
5	78736	23590.941560061893	13762.862879622
5	78781	23605.850711808038	4568.1258821745
5	78789	23609.587870569025	14808.732755584
5	78797	23613.151195725669	20752.736934702
5	78998	23675.165980945585	4590.4736523393
5	79013	23679.733600517233	4588.1141267929
5	79140	23719.499633435963	6572.7303766902
5	79152	23722.449603309354	2425.8545651582
5	79223	23741.910610019287	2431.6385237127
5	79238	23746.372998434177	12681.250529025
5	79295	23761.317714191099	4601.8611593827
5	79298	23762.818484164459	2433.2063804976
5	79406	23795.464464984331	14919.127261047
5	79492	23821.62468986312	9996.7442155859
5	79641	23868.982158976848	4640.9530623554
5	79715	23893.467019185293	15923.906428731
5	79768	23907.503508426303	8403.4042028271
5	79814	23917.371323194968	12783.482850276
5	79858	23930.641253149377	2453.567083975
5	79900	23942.999465787465	4653.090366722
5	80073	23995.471882127465	4657.4368700032
5	80114	24006.962387201989	4661.7780324755
5	80122	24009.918738727698	2466.13489265
5	80345	24075.979339183175	11547.511612188
5	80368	24085.204982191005	2478.5755648677
5	80376	24088.086542630249	2478.8100733326
5	80379	24089.82380560288	12890.874322307
5	80455	24110.856843872795	2480.5142390255
5	80485	24120.432320325877	18335.894564013
5	80533	24133.604006044995	2488.8274697148
5	80591	24153.035225555543	8499.132694729
5	80599	24156.231166107264	11584.247238939
5	80633	24165.231189136079	8498.9412723911
5	80641	24168.103130997962	8497.0951878744
5	80737	24194.07373419652	10146.924562675
5	80761	24203.390946619086	20063.190433672
5	80766	24204.653310108058	16136.466817198
5	80782	24210.148586014905	6685.0767366286
5	80792	24213.29018543052	8490.5318656352
5	80830	24223.29931847515	2479.1231688008
5	80840	24226.203376061902	4678.0747852482
5	80903	24244.492583429129	6685.5310471233
5	80919	24250.49199967409	11628.844595656
5	81005	24271.953550083809	10167.822570449
5	81321	24362.704878519539	16228.266460939
5	81331	24365.536473270756	11674.869687127
5	81346	24370.598889873055	16231.737407191
5	81468	24405.713858276854	10223.356830016
5	81484	24412.010756923694	21786.322349543
5	81510	24418.642767130275	8555.9025793711
5	81557	24432.935627238331	6734.3104068359
5	81574	24436.804338983698	2488.0329980275
5	81602	24445.828696449539	17124.150225131
5	81750	24490.899203329599	13076.367975067
5	81767	24496.598554533413	6745.9110038835
5	81881	24529.621969844282	8595.4832614875
5	81906	24537.357059626162	2490.7710060876
5	81909	24539.23961024943	8600.4944856494
5	82021	24573.619668523476	2493.8087407546
5	82031	24576.672673814998	20358.315128297
5	82081	24592.609185360439	8633.8120461599
5	82095	24598.683021521636	6791.3542165515
5	82200	24632.517422786422	11818.71511714
5	82307	24659.245564253322	2516.9046015549
5	82314	24660.747431790522	13183.993822898
5	82348	24670.014103195136	8669.2829892321
5	82514	24717.830746002189	11867.555781797
5	82551	24729.855737325614	10381.201944272
5	82638	24759.667548755436	4783.9972485496
5	82664	24769.028689125991	4785.0678002659
5	82700	24778.257284419305	8708.149079525
5	82719	24783.259205087155	2526.4910654415
5	82887	24828.569830173134	6846.5563666744
5	82942	24844.016293869233	22499.408856548
5	82955	24848.847069751723	15589.488953707
5	83012	24865.827399645997	2526.5148551693
5	83015	24867.122056051595	21062.72828081
5	83033	24873.109763165069	4811.4839226129
5	83046	24877.406705562835	14514.64751019
5	83206	24925.668971975773	4823.7705100802
5	83254	24941.417400452561	13328.348143022
5	83279	24949.825218571975	11973.715569258
5	83312	24961.021212016857	10469.492895827
5	83346	24974.108617917143	6881.2277851487
5	83374	24984.065485383823	14574.581386011
5	83445	25004.520941777408	12001.21501826
5	83465	25011.124418437548	12005.833426289
5	83479	25013.581347362019	4840.9585886729
5	83536	25029.875073950432	2555.3002835766
5	83556	25035.451734434321	4850.5010132156
5	83610	25050.916036988675	12027.648735954
5	83617	25052.793190693735	2564.0389711354
5	83625	25055.844509773394	12032.508968402
5	83647	25061.676782462811	6914.1534666656
5	83657	25065.162968111103	12039.429025226
5	83694	25076.303939476301	6915.6400781227
5	83784	25102.582319634842	10524.622364451
5	83804	25109.210834080043	6919.4039205613
5	83845	25121.100632107692	4861.0272712912
5	83851	25124.085913236501	15777.264478138
5	83895	25135.909537263835	4865.6220611282
5	84026	25171.467499432215	15809.564667972
5	84029	25172.761358925947	6926.207089075
5	84099	25194.579601829374	13485.541906093
5	84131	25203.87688402819	2564.3730780729
5	84208	25229.540736362771	18487.559819325
5	84313	25260.972197377184	8858.967245926
5	84333	25266.889008806334	19833.37098111
5	84413	25287.967322376989	4880.8569603159
5	84431	25294.5597610884	4881.4417415726
5	84492	25316.567935306637	2574.580515206
5	84592	25344.577645090281	6972.8643441371
5	84618	25354.322896237172	6975.6727511652
5	84699	25380.895340188092	6986.4910683554
5	84864	25427.977624338365	10649.030249333
5	84879	25432.277988227329	7005.1182581096
5	84882	25433.765247176087	7005.6681153352
5	84924	25445.226271024032	4917.7353560033
5	84978	25460.645628016313	15974.891898187
5	85074	25487.88476164477	4920.3930986799
5	85077	25489.377618019526	7020.0299714289
5	85132	25505.885212880242	8944.132956298
5	85148	25512.226375038605	2583.5534505437
5	85162	25515.670292869639	7021.2228637682
5	85319	25558.428568835055	7037.5006686048
5	85327	25561.662615519447	8963.7010295006
5	85342	25566.66548478516	13653.306016985
5	85431	25593.687009599678	4948.3141908047
5	85629	25649.303335854844	16092.703499818
5	85644	25654.472236540601	2604.5842975738
5	85647	25656.050580979385	2605.9793773321
5	85703	25672.801434806979	4959.4429303895
5	85830	25712.020571294855	7080.2028291488
5	85835	25713.599946967754	2612.3485422101
5	85843	25716.054035796094	13725.95950827
5	85846	25717.315131877232	9025.04449987
5	85896	25733.497789638546	4974.2106209118
5	85943	25745.181270320211	15007.486896227
5	85973	25754.122851527911	9034.6364204672
5	85997	25760.63056258304	9037.5791901191
5	86075	25783.388161094917	7101.2684907719
5	86082	25785.379370326793	12363.391046147
5	86085	25787.150052555336	4981.3298585079
5	86113	25796.016079031547	4978.4397709952
5	86164	25810.431037715506	13771.820567042
5	86274	25844.451897306423	4992.9495162849
5	86320	25860.136270031948	4996.9488986047
5	86340	25866.328694661205	10830.620797319
5	86350	25869.906604011227	2628.4848004891
5	86368	25876.517368525696	18953.374710368
5	86386	25879.875395053682	2629.5424308447
5	86400	25883.517636635212	17244.127487272
5	86433	25894.589484813867	4998.0943485028
5	86466	25905.69246241158	2632.6580612859
5	86486	25912.493843466101	7147.4908273526
5	86556	25936.876507260522	5005.0279412681
5	86569	25941.908893074525	15130.568759534
5	86662	25970.681654891613	9130.0385008128
5	86766	25998.431618486398	5021.1503527289
5	86776	26001.969962032565	2643.4391189202
5	86784	26005.655052161457	19769.968974308
5	86848	26023.649882818813	19067.687287083
5	86893	26038.192568957488	5035.8780583399
5	86904	26043.057694852594	7172.1590918432
5	86928	26049.443056917619	5041.8019098132
5	87126	26101.913227483686	2657.7647295576
5	87227	26128.307353566829	2659.1079798476
5	87310	26156.998489531186	12551.803895926
5	87398	26183.721272619684	12570.337651751
5	87471	26205.38632771304	10969.750109998
5	87494	26213.09080916444	2670.270491358
5	87637	26256.081034192875	5083.295747953
5	87662	26264.066473958514	5086.4684324612
5	87712	26276.259463105968	20592.705466212
5	87715	26278.219445406331	7241.007687518
5	87789	26298.308335884346	17493.02125263
5	87829	26311.406738204941	5092.0539063302
5	87832	26312.73985787934	9227.0929662379
5	87837	26314.38039664632	7254.9405741809
5	87880	26329.981775893143	12611.544041984
5	87972	26353.908324674204	14046.084888404
5	87987	26358.73773506774	9239.4104450965
5	88049	26378.800312385397	9242.1867193143
5	88073	26385.635398155884	2666.7181602553
5	88161	26413.195803600612	14060.257372377
5	88214	26428.169467511649	2675.8158188871
5	88269	26444.675753649573	7284.9385635633
5	88276	26446.192672697145	5113.5977543839
5	88424	26490.294668402585	12671.654777752
5	88446	26496.324244268673	5130.6235958165
5	88451	26498.312582278872	7307.7663757712
5	88479	26508.36363256021	7316.4393318668
5	88506	26515.917576709637	18566.357927358
5	88541	26527.749805697487	14119.42884205
5	88579	26540.893103009708	15429.690161279
5	88691	26574.229283590675	7341.3926441768
5	88699	26576.866959703774	18607.887561396
5	88732	26588.444644522354	2688.8873305948
5	88772	26601.489256829643	18629.11360324
5	88816	26614.272549401284	2697.7703716619
5	88889	26636.497057233254	12741.976505746
5	88942	26654.874373264299	5163.6545127427
5	88998	26670.053577276379	18676.394423316
5	89025	26678.695079712256	12751.466475798
5	89086	26697.334816725797	9356.0292667153
5	89251	26744.925686746709	7379.7037263497
5	89272	26752.388600613236	12797.953962514
5	89371	26785.058403083553	5195.5609298241
5	89450	26809.424535615614	14280.488137951
5	89472	26815.997909528447	7401.5444334993
5	89519	26830.470413620082	18804.934679748
5	89525	26833.385368744527	5203.054805021
5	89564	26844.346680770685	18818.405459411
5	89691	26877.886504419203	11223.256671587
5	89743	26893.556305177936	11216.410161107
5	89806	26912.116095303425	12877.07985139
5	89919	26950.545284463146	11224.216115381
5	89966	26962.830742239446	9416.2596607621
5	89981	26970.338064537995	12882.013117268
5	89993	26973.901901682705	2732.5878506897
5	90016	26981.795718385703	14361.207290271
5	90051	26990.482967515713	23673.067357183
5	90130	27014.834016292034	2745.9315704715
5	90151	27019.424430552548	15715.548807373
5	90164	27024.358387403427	9443.2400362247
5	90250	27049.020964733375	2747.7490529152
5	90289	27063.268535462258	22394.994881223
5	90302	27067.794411799548	12923.65606771
5	90329	27076.029322972385	5226.3648357173
5	90342	27080.491369936479	5222.9965830759
5	90380	27089.534618192029	11290.638018022
5	90438	27108.786936965819	15768.370893549
5	90502	27128.395634849977	14442.843086321
5	90527	27136.712317158144	11318.143215141
5	90568	27147.896628522734	9495.444738478
5	90585	27152.397034603963	5234.8802853811
5	90590	27153.940306996601	16986.860840949
5	90611	27162.129557547392	15795.893831516
5	90643	27172.631099936971	9505.9446503678
5	90655	27176.214048926392	11328.550172013
5	90658	27177.983054264867	20641.491288224
5	90666	27181.851402884395	5248.5005929132
5	90678	27185.222277191327	20646.95894706
5	90956	27266.990797936216	5273.8276771411
5	90977	27271.428573824883	7508.172195905
5	91067	27296.368117485242	14537.358466209
5	91089	27303.407883404243	2783.3391413256
5	91117	27312.306285170699	7518.6641128421
5	91128	27317.360230264488	23957.703186615
5	91162	27326.506780410606	21435.114741645
5	91214	27344.788932712423	15897.342341989
5	91221	27346.098039378645	11396.204108021
5	91270	27359.496193738328	9569.8462880132
5	91315	27374.126078086765	9578.1173836431
5	91330	27378.63375695818	2779.4672566094
5	91366	27389.23243740131	13110.855274395
5	91467	27417.921680972957	5307.2110023744
5	91479	27420.905613874876	2777.948360186
5	91608	27456.327138578752	20868.779079
5	91621	27460.460945471609	13147.488579356
5	91642	27468.052749977122	7561.4904067255
5	91772	27502.826282231185	11491.649491358
5	91793	27507.305953755837	9622.2391118527
5	91992	27564.305084158528	13200.531588403
5	92013	27572.999966437789	13202.86868078
5	92174	27616.557654561893	14712.289664184
5	92280	27648.607237231593	2818.162606344
5	92292	27651.816168762232	13241.225448844
5	92421	27690.805930915707	7630.6513151067
5	92521	27721.879539215425	7635.5627196769
5	92612	27744.298133050883	9685.1150431685
5	92744	27786.117288478698	5376.9190006979
5	92867	27820.855662986871	13307.103390034
5	92884	27825.752291110951	11600.895963963
5	92992	27858.659424003822	5386.6118191942
5	93124	27901.185878211496	24478.409628825
5	93175	27915.977224081618	25536.38511315
5	93217	27926.019466023197	2833.1621262619
5	93257	27938.652127873389	13368.579198733
5	93278	27947.168808934515	7702.3355718923
5	93293	27952.370143544537	2837.1043134371
5	93359	27971.870153361607	21263.924943485
5	93365	27975.089429778468	5405.2974475172
5	93412	27988.437777246584	24133.84491811
5	93459	28002.772132062962	9779.1371908476
5	93556	28032.863980547576	5411.9493653456
5	93561	28034.324296699888	9779.6738816771
5	93691	28067.790867654845	2843.9268648363
5	93726	28078.585931413486	9793.5968923069
5	93756	28087.425309556589	5410.723433311
5	93789	28097.921365539597	5415.9030512416
5	93810	28102.736982804405	9807.0185399387
5	93843	28113.123528326543	20576.091570974
5	93923	28134.178547261895	5414.0805558038
5	93946	28138.189950027928	11712.88056268
5	93956	28141.436289132252	21384.84802708
5	94043	28169.003089318848	13464.240753238
5	94053	28172.505036949045	5424.946867551
5	94065	28175.80821535462	9815.7954945096
5	94122	28195.62072847919	13467.434702451
5	94262	28236.180215494756	15023.220705496
5	94271	28238.074725627017	7750.4556300707
5	94437	28285.420789215389	2850.8888761735
5	94457	28292.427754212404	7768.5035515036
5	94516	28309.43719017119	5450.7235552106
5	94529	28314.192841665492	5449.7437038348
5	94644	28349.527239093601	7777.0118502507
5	94678	28358.202709198043	22231.248254387
5	94771	28384.644062549105	2857.61525652
5	94840	28405.518870903034	11818.958512294
5	94890	28421.211530355219	7799.9778717516
5	94917	28428.843713170891	9907.7220679633
5	94961	28441.482128725988	5462.101202833
5	95058	28471.949543747907	7820.2991076178
5	95118	28491.595274489602	11868.184982892
5	95150	28501.376925387462	2877.1467743897
5	95195	28514.655337611069	15183.719354903
5	95208	28519.211510489551	16572.209810428
5	95215	28520.68392800693	21673.955055476
5	95350	28560.770947347068	11898.890879877
5	95363	28565.268336245091	9963.2790200348
5	95478	28601.903925646515	5491.665369416
5	95527	28613.484757541539	2878.6502937511
5	95610	28641.170343654463	16615.54956043
5	95623	28645.497287788661	2886.1357481854
5	95664	28657.321844354506	5507.9268874067
5	95667	28659.23454415952	2889.7047824567
5	95683	28664.426225531707	2890.1930815386
5	95875	28719.588789578202	10010.691419041
5	95944	28739.799157359497	21020.734732663
5	96008	28758.809192326898	15313.625712192
5	96095	28786.759007434037	5529.7388560183
5	96205	28815.644521847979	13753.241477733
5	96239	28825.935324969568	19159.348742119
5	96255	28832.756133223191	5533.7354524497
5	96267	28835.907430673257	12009.079917222
5	96294	28844.119488160179	12014.442609278
5	96393	28877.590327064372	2895.7664319311
5	96400	28879.357977454416	20211.602768461
5	96405	28881.268897049553	2898.659478841
5	96422	28885.794226104818	13791.568480525
5	96463	28897.801661269605	2904.5209434573
5	96471	28900.898277347401	2904.448047834
5	96560	28924.560211217643	15396.060045943
5	96591	28932.20429522773	24920.735667487
5	96608	28937.013920234383	18088.479497624
5	96715	28969.51963608177	2906.8415914286
5	96723	28973.265503318846	24470.007285886
5	96746	28981.380473817936	21180.227604406
5	96828	29002.43331111507	21195.180044058
5	96850	29009.161376352286	10110.303453486
5	96872	29014.9203550451	2919.6569097324
5	97002	29053.047810089637	2927.0179739983
5	97026	29059.151647438904	13870.262946516
5	97039	29064.496029741368	15470.200905842
5	97136	29095.737653980268	2931.7333921231
5	97167	29104.044789851879	12120.538952071
5	97263	29131.434517208347	27791.026230934
5	97342	29154.004710191723	5599.8509978883
5	97360	29159.563393999312	8007.8680775994
5	97368	29163.158645228531	5598.6821734657
5	97383	29168.229900520157	12138.335969228
5	97402	29176.364711993608	24105.641767303
5	97422	29183.147514627363	2933.257994848
5	97474	29196.442265030603	5617.9684853202
5	97477	29197.696197421896	5616.9808508077
5	97485	29200.740038736585	16943.368739444
5	97550	29217.991861905577	18246.833826997
5	97553	29219.673365258845	13922.916013008
5	97568	29224.810753901536	18239.320561169
5	97719	29270.651082447591	13943.532716182
5	97729	29273.49925667611	12172.511850895
5	97748	29278.711907481635	22924.505973951
5	97817	29299.031265764729	8040.9692415073
5	97888	29323.766565643297	18289.853857318
5	97995	29352.455935713322	8049.0078715618
5	98130	29391.940764625044	18317.295359727
5	98314	29448.029362018641	8083.9365840927
5	98414	29476.489009935269	5642.6350321045
5	98417	29477.987535095261	5643.00459233
5	98431	29484.433741631406	21533.527514485
5	98459	29494.054789033951	8094.102606332
5	98490	29505.374632898951	2955.4186455244
5	98543	29517.916828264342	2958.4526804283
5	98567	29524.547193627851	17091.334683707
5	98572	29526.42916698833	5638.3248134619
5	98587	29531.089026692743	2962.5887442502
5	98736	29577.518442187133	5658.6870630977
5	98858	29611.693838234478	17138.125089951
5	98863	29613.474973437609	5666.1992712684
5	98893	29622.803948135906	8121.7632431757
5	98906	29627.342901168623	8124.6427183919
5	98967	29644.903536364482	5667.9349699056
5	99002	29656.087290299356	10335.512560871
5	99068	29676.480860992194	2967.434638985
5	99110	29691.358079161353	2966.3242370092
5	99144	29701.516708884805	5685.9647732047
5	99206	29720.865676364161	10356.391910589
5	99259	29735.465390146568	15780.690630927
5	99328	29754.848658192947	5693.673747145
5	99409	29779.463585304698	14178.111930183
5	99525	29814.100102441615	5706.775245602
5	99568	29827.13744858638	5706.8594630155
5	99733	29881.042218242626	5717.1302110013
5	99751	29888.0489887061	5718.1723139918
5	99782	29895.604950953315	15862.552669063
5	99819	29907.136238433274	17327.499287448
5	99861	29919.601990673917	2993.9907657989
5	99923	29939.938037567813	10427.660233456
5	100024	29970.629618728945	12416.857502749

