version 2
run Third_exit_5-7-20191023-00:20:18-5285
attr configname Third_exit_5
attr datetime 20191023-00:20:18
attr experiment Third_exit_5
attr inifile omnetpp.ini
attr iterationvars ""
attr iterationvarsf ""
attr measurement ""
attr network ResponseTimeNetwork
attr processid 5285
attr repetition 7
attr replication #7
attr resultdir results
attr runnumber 7
attr seedset 7
param **.Source.interArrivalTime exponential(6s)
param **.jobPriority bernoulli(0.8)
param **.PS.serviceTimeU1 "uniform(1.2s, 2.0s)"
param **.PS.serviceTimeU2 "uniform(2.4s, 2.8s)"
param **.SS1.serviceTime exponential(1.4s)
param **.SS2.serviceTime exponential(2s)
param **.PS.exitProbability bernoulli(0.5)

vector 0 ResponseTimeNetwork.SS1 queueLength:vector ETV
attr interpolationmode sample-hold
attr title "queue length, vector"
vector 1 ResponseTimeNetwork.SS2 queueLength:vector ETV
attr interpolationmode sample-hold
attr title "queue length, vector"
vector 2 ResponseTimeNetwork.QueueU1 queueLength:vector ETV
attr interpolationmode sample-hold
attr title "queue length, vector"
vector 3 ResponseTimeNetwork.QueueU2 queueLength:vector ETV
attr interpolationmode sample-hold
attr title "queue length, vector"
vector 4 ResponseTimeNetwork.sink lifeTimeU1:vector ETV
attr interpolationmode none
attr title "lifetime of arrived jobs U1, vector"
attr unit s
vector 5 ResponseTimeNetwork.sink lifeTime:vector ETV
attr interpolationmode none
attr title "lifetime of arrived jobs, vector"
attr unit s
vector 6 ResponseTimeNetwork.sink lifeTimeU2:vector ETV
attr interpolationmode none
attr title "lifetime of arrived jobs U2, vector"
attr unit s
0	0	0	0
0	10	4.006142929896	1
0	11	7.289093849002	0
0	57	21.888639879724	1
0	59	22.153290648548	0
0	81	28.903557200483	1
0	83	29.36068620363	0
0	96	33.456820078506	1
0	99	34.949532387345	2
0	103	36.104321794648	1
0	106	36.81986678069	2
0	114	39.477700892589	3
0	116	40.539568942357	2
0	121	41.115488991826	3
0	123	41.149094705439	2
0	126	42.611769856266	3
0	131	44.158443586841	4
0	133	44.702610679338	3
0	139	47.491783401311	4
0	141	48.019173548321	3
0	143	48.51919679446	2
0	148	49.287557042259	1
0	152	50.654221499729	0
0	155	50.825841361412	1
0	157	51.690280525544	0
0	160	52.357750146591	1
0	162	52.417620407538	0
0	252	85.233915274717	1
0	254	85.6575898767	0
0	431	238.105639904196	1
0	433	238.496848434425	0
0	461	246.86115683766	1
0	463	247.875125402805	0
0	554	281.513291752379	1
0	556	282.408631455703	0
0	564	284.175753159861	1
0	569	286.360667071109	0
0	665	323.084621131024	1
0	666	323.419065398442	0
0	690	332.00890599424	1
0	691	336.084167344283	0
0	962	499.621975910643	1
0	964	500.42871354275	0
0	1042	574.458635600962	1
0	1046	577.551219599906	0
0	1095	594.343897965883	1
0	1101	602.252288599076	0
0	1289	797.325198186939	1
0	1293	798.521151075126	0
0	1437	862.413840818451	1
0	1441	864.030320460024	0
0	1583	932.145133862644	1
0	1585	933.884305277183	0
0	1588	933.971264869161	1
0	1590	934.329412028071	0
0	1605	938.412244165316	1
0	1609	939.126998244351	0
0	1635	946.996066190489	1
0	1642	949.225840992315	0
0	1673	960.661056192778	1
0	1675	961.465490995109	0
0	1840	1035.037244183167	1
0	1841	1039.584775963295	0
0	1847	1040.982345042061	1
0	1850	1042.774334763791	2
0	1851	1043.358645201074	1
0	1854	1045.148101463922	0
0	2310	1336.148903041924	1
0	2311	1338.153302748643	0
0	2322	1341.769012155339	1
0	2324	1342.031543143045	0
0	2335	1346.301294407763	1
0	2336	1346.443479952131	0
0	2447	1432.533037679484	1
0	2449	1433.136368502676	0
0	3057	1725.232446549522	1
0	3059	1726.571580303667	0
0	3125	1780.405503552663	1
0	3126	1782.213836727565	0
0	3389	1958.715533663238	1
0	3392	1960.663543339724	2
0	3396	1962.711844618633	1
0	3400	1964.029505889877	2
0	3406	1965.694385541024	1
0	3414	1968.271983387023	0
0	3550	2048.863246470233	1
0	3551	2049.398173617807	0
0	3720	2136.772193875513	1
0	3721	2138.716431033189	0
0	3757	2158.618634009479	1
0	3759	2159.618758232978	0
0	3908	2264.839610724947	1
0	3913	2266.504823800652	0
0	3928	2271.047306853211	1
0	3935	2273.991198564468	0
0	3948	2278.271257856166	1
0	3950	2278.336401875585	0
0	3976	2287.472171631134	1
0	3978	2287.584700923189	0
0	4044	2317.614750220204	1
0	4046	2317.665374041055	0
0	4057	2322.417434263738	1
0	4059	2323.245404481022	0
0	4072	2327.424917188796	1
0	4076	2328.811389104008	0
0	4179	2398.12936765399	1
0	4183	2399.65942882319	0
0	4215	2411.196493189747	1
0	4216	2411.867637341178	0
0	4409	2540.834550789692	1
0	4419	2543.872209583543	2
0	4422	2545.343014590204	3
0	4426	2547.485553145808	2
0	4429	2547.817929977805	1
0	4436	2550.038834359354	0
0	5086	3011.784924052278	1
0	5088	3013.053318055296	0
0	5094	3014.921125900554	1
0	5102	3017.681334985601	2
0	5104	3017.735794544517	1
0	5114	3021.61796083519	0
0	5124	3024.564872922743	1
0	5126	3024.871090169293	0
0	5240	3089.303322049967	1
0	5241	3089.615868389921	0
0	5612	3324.030706479608	1
0	5615	3325.480567267931	2
0	5616	3327.627693391796	1
0	5621	3328.0897672412	0
0	5652	3358.172801543115	1
0	5654	3358.741249324974	0
0	5687	3385.154458419379	1
0	5701	3390.424594742436	0
0	5969	3539.258559757703	1
0	5972	3540.804445983701	2
0	5979	3543.43392400251	1
0	5982	3544.761299816651	2
0	5984	3545.015903037089	1
0	5986	3545.968036220351	0
0	6019	3556.484246235158	1
0	6021	3556.801015287341	0
0	6284	3710.29788668538	1
0	6286	3710.336028787474	0
0	6397	3769.798303750164	1
0	6399	3770.352670374004	0
0	6410	3774.093573156006	1
0	6411	3775.170108174203	0
0	6440	3785.748313041336	1
0	6441	3790.616401361446	0
0	6515	3815.864236340149	1
0	6520	3818.693122852688	2
0	6526	3820.039962576504	1
0	6532	3821.795097863184	2
0	6534	3822.069312607484	1
0	6536	3822.618628980621	0
0	6562	3831.722535561281	1
0	6566	3834.812350474725	0
0	6612	3863.379736669127	1
0	6614	3864.279015420204	0
0	6617	3865.078551989559	1
0	6619	3865.905608452058	0
0	6622	3866.310485597465	1
0	6625	3867.598037222352	2
0	6629	3869.460894103003	1
0	6631	3869.471606155404	0
0	6634	3870.031411022988	1
0	6638	3870.831644215916	0
0	6666	3878.941693559211	1
0	6671	3880.898518025611	2
0	6674	3882.273316086006	3
0	6676	3883.360831266242	2
0	6684	3886.179955683129	1
0	6686	3886.340364569755	0
0	7032	4066.337371372329	1
0	7034	4066.688864278112	0
0	7067	4077.383336076682	1
0	7069	4078.136694827996	0
0	7147	4116.283095728889	1
0	7151	4116.495217441723	0
0	7310	4188.367742406943	1
0	7311	4189.533646386676	0
0	7330	4196.50097370109	1
0	7331	4199.796929924075	0
0	7337	4201.571451089789	1
0	7352	4210.087837339769	2
0	7354	4210.664040519037	1
0	7362	4213.197204979154	2
0	7376	4217.234265055058	1
0	7378	4217.898923047389	0
0	7667	4397.436650962414	1
0	7669	4397.848360760731	0
0	8365	4849.81236169982	1
0	8366	4850.844319485784	0
0	8530	5027.435064771342	1
0	8531	5029.420997402987	0
0	8705	5136.30615357976	1
0	8706	5136.812544567965	0
0	8730	5154.426565220204	1
0	8734	5155.859601942074	0
0	9042	5319.673225280581	1
0	9045	5321.178596341735	2
0	9046	5321.352849655525	1
0	9050	5322.573297304587	2
0	9051	5324.57969105726	1
0	9054	5325.501307804965	0
0	9200	5393.575138596953	1
0	9201	5393.584180219311	0
0	9220	5400.743577230003	1
0	9221	5401.488698870103	0
0	9380	5641.566717337896	1
0	9381	5644.175597710368	0
0	9505	5722.850889738938	1
0	9509	5722.937782152091	0
0	9512	5724.336369922756	1
0	9514	5724.795671420415	0
0	9556	5737.403903178871	1
0	9558	5737.719661479977	0
0	9566	5740.275418497436	1
0	9568	5740.846460734361	0
0	9571	5742.104122797586	1
0	9576	5743.374834373966	2
0	9578	5743.526633994087	1
0	9583	5744.690409299359	2
0	9587	5745.646527276126	1
0	9593	5747.29149857983	2
0	9595	5747.366512387023	1
0	9602	5750.046408242145	0
0	9615	5753.402694157326	1
0	9617	5754.779217624487	0
0	9642	5765.088688852825	1
0	9644	5765.960592853842	0
0	9704	5799.113323457001	1
0	9711	5800.80130770362	0
0	9727	5806.775692597425	1
0	9729	5806.893092293532	0
0	9780	5827.116580199447	1
0	9781	5827.489089029069	0
0	10016	5965.467727109492	1
0	10018	5966.449072567223	0
0	10554	6349.776537558408	1
0	10556	6350.02676689706	0
0	10729	6487.861987741471	1
0	10732	6489.183737772138	2
0	10734	6489.408985283438	1
0	10737	6490.466119855636	2
0	10739	6491.483223868494	1
0	10742	6491.732614827522	2
0	10744	6492.691010031718	1
0	10756	6494.870270225976	0
0	10766	6497.490137350925	1
0	10768	6497.934157781792	0
0	10789	6504.487761225916	1
0	10791	6505.070913523998	0
0	10950	6583.641997168627	1
0	10951	6585.957011171992	0
0	11095	6675.371803400033	1
0	11096	6676.667499299334	0
0	11157	6717.231508309068	1
0	11159	6717.654518748324	0
0	11805	7147.52106261766	1
0	11806	7149.228125199071	0
0	11975	7223.678292988114	1
0	11976	7224.898391856277	0
0	12060	7287.622059481957	1
0	12061	7288.807088261157	0
0	12065	7290.263340889163	1
0	12066	7291.503658116534	0
0	12165	7338.317837585012	1
0	12167	7338.874493817699	0
0	12172	7339.934586787845	1
0	12174	7340.562162397241	0
0	12177	7341.765402667473	1
0	12179	7342.647466826675	0
0	12182	7343.740523440453	1
0	12184	7344.254940902407	0
0	12206	7353.558262993644	1
0	12208	7354.447952482629	0
0	12484	7476.750788456877	1
0	12486	7477.123833009851	0
0	13115	7860.912696122688	1
0	13116	7861.404932968112	0
0	13167	7893.498253069102	1
0	13174	7896.163191878564	0
0	13184	7899.259091630824	1
0	13186	7900.264456444625	0
0	13189	7901.218218087092	1
0	13191	7901.506779862598	0
0	13221	7911.936453732051	1
0	13223	7911.998328436818	0
0	13642	8137.490928000099	1
0	13644	8138.331819051911	0
0	13649	8139.09312916126	1
0	13651	8139.883964548307	0
0	13760	8216.065904650386	1
0	13764	8218.515962553352	0
0	14104	8407.756871385174	1
0	14111	8409.459788877355	0
0	14642	8721.053737164598	1
0	14644	8721.396149129941	0
0	14647	8723.011508849759	1
0	14651	8724.673746360419	0
0	14662	8728.514475414652	1
0	14667	8730.022763274174	2
0	14669	8730.114449933712	1
0	14676	8732.404704821733	0
0	14699	8739.762913522992	1
0	14704	8741.755953393813	2
0	14706	8742.191451668255	1
0	14709	8743.540970832791	2
0	14714	8744.919919859741	3
0	14718	8745.431219606804	2
0	14720	8745.863081328619	1
0	14722	8745.934143642189	0
0	14753	8755.988715267864	1
0	14755	8756.407416362057	0
0	14773	8762.368380252582	1
0	14776	8764.133153919813	2
0	14778	8765.075864603592	1
0	14781	8765.81613255882	2
0	14783	8765.825332886705	1
0	14785	8766.271948999626	0
0	14823	8778.969049477515	1
0	14825	8779.431682946786	0
0	15084	8907.052641462542	1
0	15089	8908.520690214092	0
0	15357	9041.494862757585	1
0	15359	9042.417123710061	0
0	15509	9117.045409891644	1
0	15513	9118.548408150816	0
0	15592	9148.111158628368	1
0	15594	9148.136293277586	0
0	16242	9653.001179439486	1
0	16249	9657.181396549761	0
0	16332	9683.379317550635	1
0	16336	9684.182673742321	0
0	16482	9770.470823428678	1
0	16484	9770.732988119358	0
0	16645	9881.196871983274	1
0	16646	9881.292964670518	0
0	16655	9884.491583427684	1
0	16656	9884.558637371576	0
0	16728	9931.539305678386	1
0	16730	9932.86991673005	0
0	16935	10020.90268526517	1
0	16936	10022.159565472413	0
0	16957	10030.040376233333	1
0	16959	10030.449045830156	0
0	17050	10071.650099854899	1
0	17054	10073.595419930485	0
0	17182	10134.848000823533	1
0	17184	10136.005003714167	0
0	17605	10390.433156429999	1
0	17606	10390.856915083533	0
0	17950	10597.412357558722	1
0	17951	10598.783291741883	0
0	18104	10730.528169120957	1
0	18106	10731.490153640462	0
0	18375	10864.7734248543	1
0	18380	10867.418619446225	2
0	18381	10868.900055280862	1
0	18386	10869.186093239212	0
0	18426	10880.982641199951	1
0	18434	10885.391833589931	0
0	18440	10887.566343625609	1
0	18441	10887.857432804413	0
0	18455	10893.372194163099	1
0	18456	10894.305584765793	0
0	18812	11078.3907228942	1
0	18814	11078.611117331489	0
0	18817	11079.890754148641	1
0	18821	11080.501827746834	0
0	18829	11083.019140454658	1
0	18842	11087.615189893634	2
0	18845	11088.837361800202	3
0	18846	11088.877061466313	2
0	18861	11093.623392827522	1
0	18866	11094.020913199894	2
0	18868	11094.784205271949	1
0	18870	11094.796899055119	0
0	18896	11103.341460103541	1
0	18898	11103.379762179145	0
0	19180	11302.153285424904	1
0	19181	11302.689527612455	0
0	19325	11364.935478435143	1
0	19330	11366.995577737042	2
0	19331	11371.364615549753	1
0	19339	11373.316384791504	0
0	19342	11374.136048548902	1
0	19344	11375.154832232245	0
0	19359	11378.793641894731	1
0	19361	11379.281698735726	0
0	19364	11380.158472524817	1
0	19374	11384.303515884713	0
0	19377	11385.025528091426	1
0	19379	11386.098879924168	0
0	19382	11386.370084861341	1
0	19384	11387.278902744276	0
0	19389	11388.367493000674	1
0	19391	11389.128355496268	0
0	19455	11414.496911980393	1
0	19456	11416.328594920295	0
0	19492	11429.187292543534	1
0	19494	11429.616774147979	0
0	19685	11550.668576834329	1
0	19686	11552.408672381931	0
0	19705	11559.500899178715	1
0	19706	11560.512332715912	0
0	19715	11563.55581057824	1
0	19716	11564.317323031305	0
0	19899	11636.913502033099	1
0	19906	11640.828118077502	0
0	19965	11676.344022888182	1
0	19966	11677.67793039308	0
0	19979	11683.041297207599	1
0	19981	11684.191339791489	0
0	19984	11684.805045032886	1
0	19989	11686.930309829915	0
0	20062	11719.552906067693	1
0	20064	11720.016409484475	0
0	20177	11848.551138585169	1
0	20179	11848.90983965291	0
0	20235	11869.777514627145	1
0	20236	11871.282378456194	0
0	20405	11954.219948101473	1
0	20406	11954.281424289896	0
0	20410	11955.600344440109	1
0	20411	11956.439277792741	0
0	20650	12185.293059998083	1
0	20651	12185.826044036757	0
0	20660	12188.673962094199	1
0	20661	12192.311636063689	0
0	20707	12212.089512032821	1
0	20710	12213.689120227277	2
0	20711	12214.42065404676	1
0	20714	12215.000641064657	0
0	20917	12385.727039175412	1
0	20919	12386.351997695965	0
0	21170	12535.60015129016	1
0	21174	12537.140451444729	0
0	21177	12537.918465837403	1
0	21179	12538.628013598709	0
0	21199	12544.811076100856	1
0	21201	12544.87672824963	0
0	21204	12546.673663485736	1
0	21209	12548.499955128633	2
0	21214	12550.248140360012	1
0	21216	12551.442600813351	0
0	21259	12564.247444787563	1
0	21261	12564.639030720351	0
0	21845	12854.128958705444	1
0	21849	12855.084454922924	0
0	21857	12857.742593668548	1
0	21859	12858.46425271085	0
0	21862	12859.08566469304	1
0	21864	12860.108704647408	0
0	21973	12916.138059194876	1
0	21977	12917.212315315231	0
0	21988	12921.17707225897	1
0	21990	12921.764797372824	0
0	22014	12930.895780124261	1
0	22019	12932.818203164594	0
0	22022	12933.457673209279	1
0	22024	12934.229395140108	0
0	22082	12954.854806995242	1
0	22084	12955.280145445347	0
0	22185	13046.13496199695	1
0	22186	13048.620404672487	0
0	22344	13142.361096967003	1
0	22346	13142.707013739915	0
0	22349	13143.835982708811	1
0	22354	13146.072984987276	0
0	22897	13460.230202407325	1
0	22899	13460.343288260912	0
0	22935	13473.65885503956	1
0	22936	13473.705776127935	0
0	23020	13522.391046008147	1
0	23021	13522.597878789572	0
0	23180	13665.19540049077	1
0	23181	13665.714943537064	0
0	23185	13666.956776449218	1
0	23186	13667.052331739589	0
0	23202	13672.342473140657	1
0	23204	13672.521541040607	0
0	23300	13716.978165123942	1
0	23301	13717.205706043072	0
0	23305	13718.437354444243	1
0	23309	13722.454967086976	0
0	23320	13726.81590982873	1
0	23324	13730.96856947075	0
0	23327	13731.40107636073	1
0	23329	13731.78652595327	0
0	23362	13743.330485413701	1
0	23366	13744.661874394752	0
0	23374	13745.866554961614	1
0	23379	13748.012125541647	0
0	23410	13767.49765376792	1
0	23411	13767.757502889405	0
0	24030	14191.558724426402	1
0	24031	14192.849262445946	0
0	24037	14194.594787876089	1
0	24039	14195.930600408196	0
0	24094	14228.774516406856	1
0	24096	14228.785867468476	0
0	24335	14359.595613711574	1
0	24336	14360.603524619691	0
0	24395	14406.083721738944	1
0	24396	14406.342451264927	0
0	24547	14539.837496172967	1
0	24551	14543.287188036818	0
0	24575	14552.942122259572	1
0	24576	14556.158066164079	0
0	24635	14585.09854113149	1
0	24636	14585.40166131178	0
0	24895	14784.20732333927	1
0	24896	14784.606079508983	0
0	24972	14811.033360817584	1
0	24974	14811.176340295042	0
0	24980	14814.109579453918	1
0	24981	14819.33406200817	0
0	25590	15235.290439216328	1
0	25591	15236.420405118363	0
0	25785	15347.292727038711	1
0	25786	15350.431491044652	0
0	25892	15404.702673646392	1
0	25901	15408.721699008301	0
0	25991	15435.996736726864	1
0	25993	15437.363615093664	0
0	25999	15439.766502262606	1
0	26006	15441.843174696997	0
0	26014	15444.715767855524	1
0	26016	15445.820548927627	0
0	26060	15507.007900043473	1
0	26061	15507.125430501447	0
0	26217	15597.737013049518	1
0	26219	15598.609591159388	0
0	26405	15708.119820679319	1
0	26406	15708.265756831089	0
0	26702	15896.576078118241	1
0	26704	15898.382977358113	0
0	26707	15898.46049755369	1
0	26709	15899.631574833507	0
0	26712	15899.764182319908	1
0	26714	15899.926960813827	0
0	26902	16017.908708258498	1
0	26904	16018.646033301403	0
0	26929	16025.974975171839	1
0	26931	16027.503361204252	0
0	26934	16027.648107120548	1
0	26937	16029.136115959813	2
0	26939	16030.170094806348	1
0	26941	16030.31226337669	0
0	26974	16041.058536565086	1
0	26978	16042.719393254576	0
0	26991	16045.796437309278	1
0	26993	16046.698821492713	0
0	27032	16060.697957198913	1
0	27036	16062.306061916397	0
0	27049	16065.420109854671	1
0	27053	16065.574424872248	0
0	27335	16190.703673389619	1
0	27336	16190.811125933018	0
0	27497	16266.965012133791	1
0	27501	16268.117589658503	0
0	27517	16273.510473848432	1
0	27521	16274.679065825459	0
0	27637	16367.326491139941	1
0	27641	16369.31137173719	0
0	27671	16376.966445985094	1
0	27680	16378.899350738102	0
0	27776	16412.051356241323	1
0	27779	16413.367756991677	2
0	27786	16415.221887481987	3
0	27788	16415.719999433287	2
0	27790	16415.740729414529	1
0	27794	16416.259705352354	0
0	28452	16768.957885841413	1
0	28454	16769.174036309126	0
0	28797	17033.159147681296	1
0	28799	17033.33530623776	0
0	28855	17066.71705436937	1
0	28856	17067.049737869298	0
0	29190	17255.649905096629	1
0	29196	17258.745840815637	0
0	29264	17307.516366753807	1
0	29266	17308.472087461668	0
0	29298	17317.441231854712	1
0	29302	17318.482944184227	0
0	29762	17596.1044755856	1
0	29766	17597.534679014644	0
0	29832	17623.341975798457	1
0	29835	17625.083676386437	2
0	29836	17625.70293775607	1
0	29842	17627.045941586197	2
0	29844	17628.154567089537	1
0	29846	17628.299915874779	0
0	30460	18049.20765596716	1
0	30464	18051.021744903573	0
0	30467	18051.55845155386	1
0	30469	18052.649037941941	0
0	30477	18054.292096164317	1
0	30486	18057.64311209842	0
0	30507	18064.566077432161	1
0	30511	18066.244935169486	0
0	30532	18073.707080015956	1
0	30534	18073.888863840143	0
0	30586	18088.541743935317	1
0	30588	18088.762301850769	0
0	30601	18093.653269946248	1
0	30603	18093.658094804323	0
0	30611	18096.276972840585	1
0	30618	18098.253049779173	0
0	30982	18280.99665469665	1
0	30985	18282.923848296589	2
0	30986	18283.818929994377	1
0	30989	18284.713972269549	0
0	31005	18290.933487304385	1
0	31006	18291.27826379591	0
0	31027	18297.57316259907	1
0	31029	18298.552962967159	0
0	31080	18326.475333199767	1
0	31084	18328.031471962042	0
0	31090	18329.743254604751	1
0	31091	18329.756842331116	0
0	31178	18418.629746088933	1
0	31180	18418.738027037464	0
0	31183	18420.304108197976	1
0	31185	18420.609723437034	0
0	31190	18422.008797209699	1
0	31197	18424.970326777923	0
0	31235	18435.631380120094	1
0	31238	18437.567563502665	2
0	31240	18437.888059907409	1
0	31242	18437.993250479702	0
0	31492	18602.249643842794	1
0	31494	18602.661956717924	0
0	31675	18766.24300858075	1
0	31676	18767.644194040991	0
0	32067	19152.845533235301	1
0	32069	19154.453486886456	0
0	32235	19248.757845330421	1
0	32236	19249.106241213456	0
0	32285	19278.118113538226	1
0	32286	19281.567589770041	0
0	32382	19353.988721638245	1
0	32385	19355.190556542089	2
0	32386	19355.305176140558	1
0	32389	19355.561588031985	0
0	32510	19419.705949417204	1
0	32511	19419.909765744102	0
0	32552	19441.905608893941	1
0	32554	19441.952357337969	0
0	32564	19444.77016526946	1
0	32566	19444.908573614568	0
0	32579	19450.160905216832	1
0	32582	19451.844134950463	2
0	32584	19452.311541655427	1
0	32586	19453.007121345154	0
0	32940	19725.41544767754	1
0	32941	19726.405260602194	0
0	33012	19757.428723226293	1
0	33016	19759.463552438924	0
0	33032	19764.053661399605	1
0	33034	19764.404760512513	0
0	33222	19852.292487782895	1
0	33224	19853.203916247851	0
0	33455	20069.077929961584	1
0	33456	20069.763332494131	0
0	33462	20071.311667081683	1
0	33464	20071.760053056423	0
0	33507	20085.168900446378	1
0	33509	20085.86931777208	0
0	33662	20193.358780824516	1
0	33666	20194.705896361476	0
0	34159	20667.801557201483	1
0	34161	20667.899938389435	0
0	34174	20672.109257394412	1
0	34185	20677.173012827304	2
0	34186	20678.979270720305	1
0	34189	20680.333092259936	0
0	34192	20680.762291094298	1
0	34196	20685.83550262116	0
0	34367	20775.592603685469	1
0	34369	20776.03562925855	0
0	34877	21184.110197495905	1
0	34879	21184.786831604466	0
0	35053	21304.060167140822	1
0	35055	21304.122225526062	0
0	35511	21514.72495105652	1
0	35513	21515.717790032624	0
0	35551	21527.996002707572	1
0	35558	21530.04346499831	0
0	35577	21537.484427674427	1
0	35579	21537.676443967436	0
0	35584	21539.118517252556	1
0	35586	21540.541006031026	0
0	35589	21540.876747287936	1
0	35591	21541.611754382299	0
0	35599	21543.723131281077	1
0	35602	21545.122521928637	2
0	35605	21546.543492586664	3
0	35606	21546.611394827247	2
0	35609	21547.630130815585	1
0	35612	21548.443131542199	2
0	35615	21549.88663226384	3
0	35616	21551.10105935033	2
0	35620	21552.836482991237	3
0	35621	21553.831479449524	2
0	35624	21554.080122949165	1
0	35626	21554.421924698597	0
0	35712	21596.659338376376	1
0	35714	21597.385996358535	0
0	35850	21690.817493168678	1
0	35851	21692.97094595129	0
0	36027	21835.053523688797	1
0	36029	21836.489915333678	0
0	36087	21855.688291104137	1
0	36089	21856.244355047848	0
0	36289	21983.614102574711	1
0	36291	21984.961922286311	0
0	36297	21986.452794277196	1
0	36301	21987.31657786106	0
0	36457	22040.021628361753	1
0	36461	22042.270174196511	0
0	36467	22043.790193263776	1
0	36471	22044.222840717342	0
0	36478	22045.008534464947	1
0	36480	22045.711869043443	0
0	36559	22108.680786223592	1
0	36561	22108.703758114442	0
0	36578	22113.116153234313	1
0	36580	22113.395102968122	0
0	36583	22114.673866242612	1
0	36585	22115.981859487224	0
0	36653	22138.214090558583	1
0	36655	22139.890143542762	0
0	36676	22147.135216348873	1
0	36678	22147.508086280147	0
0	36693	22152.548308126324	1
0	36695	22152.606785728609	0
0	36711	22158.390850570494	1
0	36716	22160.791490242628	0
0	36917	22257.60283519554	1
0	36919	22258.807640382641	0
0	36977	22276.557273307844	1
0	36979	22277.772495838748	0
0	36985	22279.087049118831	1
0	36986	22280.54689348887	0
0	36990	22282.006284348735	1
0	36995	22283.606121872639	2
0	36996	22285.58772392439	1
0	36999	22285.946121754409	0
0	37136	22368.372182074959	1
0	37138	22369.550737460851	0
0	37245	22422.436939917614	1
0	37246	22424.264631977383	0
0	37489	22558.21407843778	1
0	37492	22559.449680225794	2
0	37494	22559.695244436726	1
0	37501	22561.126250684154	0
0	37782	22706.401369134638	1
0	37786	22707.229439001312	0
0	37887	22750.360223972153	1
0	37891	22752.907753012173	0
0	38047	22825.261329826925	1
0	38049	22825.891369319163	0
0	38110	22873.290107803412	1
0	38111	22874.053140715117	0
0	38124	22877.405228630061	1
0	38126	22877.853083857917	0
0	38177	22903.895337784864	1
0	38179	22904.760398440043	0
0	38190	22907.969114585422	1
0	38191	22908.986083148567	0
0	38287	22962.169457479545	1
0	38289	22962.543133315339	0
0	38292	22963.54746696444	1
0	38294	22963.693283681391	0
0	38349	22982.554918920786	1
0	38351	22983.129170749608	0
0	38540	23095.151525036013	1
0	38546	23097.069413707717	0
0	38549	23097.965550358466	1
0	38556	23101.346040897303	0
0	38580	23110.048604662789	1
0	38581	23110.738965791665	0
0	38639	23168.136009127644	1
0	38641	23168.156480865986	0
0	38687	23185.026759054696	1
0	38694	23187.111352715969	0
0	38842	23292.879686742515	1
0	38845	23294.165970993467	2
0	38846	23294.431993298512	1
0	38849	23294.789982146383	0
0	38857	23297.133202344086	1
0	38859	23297.305788052265	0
0	38880	23306.492488511559	1
0	38881	23310.326496908383	0
0	38902	23316.512233130761	1
0	38906	23320.305713187668	0
0	38954	23345.648540425636	1
0	38956	23346.102611737536	0
0	39100	23415.391308353839	1
0	39101	23415.51819343303	0
0	39280	23570.501213600647	1
0	39281	23571.432125387089	0
0	39350	23603.803063783488	1
0	39351	23603.814674282333	0
0	39360	23606.98271627303	1
0	39361	23607.774300749863	0
0	39419	23638.11897604507	1
0	39422	23639.565590151815	2
0	39424	23641.332247985959	1
0	39427	23641.505777552394	2
0	39431	23644.373379340067	1
0	39434	23644.982474280546	0
0	39447	23649.075636078089	1
0	39452	23650.32450636816	2
0	39454	23651.430264588591	1
0	39461	23652.17230470399	0
0	39464	23653.376811286107	1
0	39466	23653.91479761189	0
0	39660	23763.344027146087	1
0	39661	23765.488243355345	0
0	39675	23770.478078419272	1
0	39679	23771.597074070806	0
0	39697	23777.987343015286	1
0	39699	23778.553253977473	0
0	39749	23794.147115552934	1
0	39752	23796.006395469556	2
0	39760	23799.122963201578	3
0	39761	23799.788476398727	2
0	39764	23799.940333725608	1
0	39766	23800.154726106078	0
0	39822	23833.956401761509	1
0	39824	23834.109425635745	0
0	39827	23835.588299607187	1
0	39829	23835.736339763814	0
0	39835	23838.434890680089	1
0	39836	23838.496563248948	0
0	39885	23859.952720966544	1
0	39886	23860.240155383101	0
0	39897	23863.47616666229	1
0	39902	23865.452711781389	2
0	39906	23868.069190767723	1
0	39909	23868.295546549634	0
0	39953	23881.215902932117	1
0	39958	23883.190244956658	0
0	39963	23884.022550249228	1
0	39965	23885.318996172993	0
0	39994	23895.730295774655	1
0	39996	23896.575106038823	0
0	40162	24006.091956962298	1
0	40166	24007.805183198104	0
0	40605	24315.079864503178	1
0	40606	24315.186457269255	0
0	40757	24384.50010114955	1
0	40759	24385.789155827662	0
0	40834	24408.191050287059	1
0	40836	24409.057138402425	0
0	40839	24410.009080680555	1
0	40842	24411.852904634832	2
0	40844	24412.315433844885	1
0	40849	24414.008678864599	0
0	40897	24429.67550529009	1
0	40899	24430.799706618825	0
0	40912	24434.856026457346	1
0	40914	24436.119988009862	0
0	40917	24436.398814761362	1
0	40919	24437.169504444287	0
0	40922	24437.847911726034	1
0	40924	24438.497626210685	0
0	41070	24512.155469224897	1
0	41071	24512.524595663804	0
0	41075	24514.094254498664	1
0	41076	24516.53682343029	0
0	41090	24521.396157976396	1
0	41091	24521.893398753145	0
0	41195	24563.636524682153	1
0	41196	24564.44908963263	0
0	41297	24609.500548098213	1
0	41299	24609.511714312881	0
0	41450	24684.972638588827	1
0	41451	24685.717418204188	0
0	41815	24909.101425342561	1
0	41819	24911.023831669338	0
0	41822	24911.340664955711	1
0	41824	24912.054468465443	0
0	41850	24921.574973438604	1
0	41851	24922.75530062723	0
0	41855	24924.707440987556	1
0	41856	24925.314852189816	0
0	41865	24928.997717401556	1
0	41866	24930.272120683801	0
0	41885	24936.9337155055	1
0	41889	24940.608671762735	0
0	42102	25091.793184518921	1
0	42111	25096.643654095616	0
0	42184	25140.88581158462	1
0	42186	25142.029467635219	0
0	42415	25267.752798841923	1
0	42416	25269.627680141779	0
0	42432	25274.60949581165	1
0	42435	25276.569066646249	2
0	42436	25277.467001759003	1
0	42439	25277.559374047219	0
0	42449	25281.318350169736	1
0	42451	25281.744264173254	0
0	42459	25283.859310082275	1
0	42464	25285.7506239233	0
0	43107	25678.271223578183	1
0	43109	25678.793872481146	0
0	43265	25763.087361540243	1
0	43266	25767.337379320418	0
0	43270	25768.778668107358	1
0	43271	25769.609622856741	0
0	43310	25791.398096877207	1
0	43311	25795.925162003257	0
0	43320	25798.88089021153	1
0	43324	25799.825236864462	0
0	43362	25812.144756172593	1
0	43364	25813.180845986103	0
0	43546	25883.076603614567	1
0	43550	25883.526477582367	0
0	43553	25884.559004559582	1
0	43557	25885.638313445641	0
0	43562	25885.799285311093	1
0	43564	25886.863882910344	0
0	43573	25890.237752123392	1
0	43578	25892.405970266727	0
0	43586	25895.384850032842	1
0	43588	25895.755539223405	0
0	43678	25925.256513730653	1
0	43680	25925.989545812508	0
0	43683	25927.077089341015	1
0	43687	25927.225792284767	0
0	43741	25946.905488883546	1
0	43743	25947.929155581116	0
0	43869	26022.998020296683	1
0	43876	26026.334882926975	0
0	43880	26027.607347821106	1
0	43881	26028.634657047131	0
0	44120	26170.457349029092	1
0	44126	26172.666704307442	0
0	44129	26173.264977761271	1
0	44131	26174.088738314871	0
0	44134	26175.045450834284	1
0	44136	26175.123025035037	0
0	44151	26179.330204583431	1
0	44153	26180.107432540324	0
0	44156	26180.648978785711	1
0	44158	26180.71502353088	0
0	44198	26193.971487878176	1
0	44200	26195.241036664625	0
0	44203	26195.782345326158	1
0	44206	26197.148344089749	2
0	44208	26197.600662011757	1
0	44211	26198.732731913875	2
0	44213	26199.994052367326	1
0	44218	26201.417887146929	0
0	44234	26206.156519425387	1
0	44236	26207.246338450651	0
0	44795	26566.517322246993	1
0	44796	26568.142177568973	0
0	45070	26712.481604372768	1
0	45071	26714.062338955791	0
0	45221	26800.383635653372	1
0	45223	26800.660044398028	0
0	45249	26810.365672722088	1
0	45253	26811.369834251383	0
0	45259	26812.884417896347	1
0	45261	26813.237916611771	0
0	45323	26831.686999303291	1
0	45325	26832.348510175471	0
0	45445	26878.188172215874	1
0	45450	26881.139940375914	2
0	45454	26882.766913235967	1
0	45456	26883.00946097746	0
0	45517	26917.474445054223	1
0	45519	26918.292841265397	0
0	45522	26919.438198741627	1
0	45524	26919.514443093935	0
0	45552	26929.723706440226	1
0	45554	26930.666906226845	0
0	45557	26931.013701161899	1
0	45559	26931.433379145294	0
0	45564	26932.276402208738	1
0	45569	26934.331343504439	0
0	45667	26980.448733490933	1
0	45669	26980.767072372344	0
0	45707	26992.891522249062	1
0	45711	26994.042428102538	0
0	45941	27170.115172720178	1
0	45945	27170.707958765629	0
0	45948	27171.954759705476	1
0	45950	27173.240780155349	0
0	45953	27173.761552414335	1
0	45955	27174.3644698039	0
0	46677	27634.451791860999	1
0	46679	27634.49272017081	0
0	46902	27750.457526912439	1
0	46904	27750.510333492244	0
0	47059	27808.834578460642	1
0	47061	27810.215683529161	0
0	47069	27812.298664925435	1
0	47071	27812.567529008611	0
0	47132	27833.319635748307	1
0	47136	27836.439050517559	0
0	47460	28066.238915844688	1
0	47461	28069.297030213241	0
0	47507	28103.520528547644	1
0	47509	28103.573425269043	0
0	47565	28127.576565877784	1
0	47566	28127.989560295974	0
0	47592	28136.136912898679	1
0	47594	28136.257997316181	0
0	47685	28193.088179056275	1
0	47686	28194.753431900509	0
0	48035	28426.554162834142	1
0	48036	28429.084524230308	0
0	48087	28456.098966239854	1
0	48091	28460.404512285811	0
0	48110	28468.777305516807	1
0	48111	28468.804764084129	0
0	48205	28523.055330660551	1
0	48211	28525.175741654996	0
0	48295	28579.897777008594	1
0	48296	28581.50124118012	0
0	48310	28585.647005527471	1
0	48311	28585.6998506026	0
0	48320	28588.346534773115	1
0	48325	28590.414654629008	2
0	48326	28592.799923300319	1
0	48332	28594.385606048391	2
0	48334	28595.44495386821	1
0	48339	28596.578598803515	0
0	48362	28605.232022116281	1
0	48364	28605.285041722858	0
0	48571	28686.838360972543	1
0	48578	28689.039856687274	0
0	48606	28697.391284765889	1
0	48608	28698.260517529558	0
0	48632	28706.847629907941	1
0	48634	28707.8426178558	0
0	48872	28839.897406126113	1
0	48874	28840.037700077311	0
0	48877	28841.453294361123	1
0	48884	28844.522840132898	0
0	48954	28910.868057119681	1
0	48957	28912.816091570838	2
0	48959	28913.117951047518	1
0	48961	28913.537702686959	0
0	49705	29466.880064092535	1
0	49706	29467.831231567096	0
0	49875	29572.10060874642	1
0	49876	29572.351877983787	0
0	50110	29713.673898957871	1
0	50111	29714.072826210578	0
0	50355	29901.035311372022	1
0	50356	29901.123911802807	0
0	50404	29924.542219756889	1
0	50406	29925.110709357068	0
1	0	0	0
1	500	260.986539691704	1
1	501	261.760407736832	0
1	1325	811.244269084191	1
1	1326	812.96558705466	0
1	1475	891.598963619396	1
1	1476	891.867526277645	0
1	1485	894.463846663131	1
1	1486	895.029691226578	0
1	1525	910.419689906969	1
1	1541	919.712612388469	0
1	1569	928.639404413849	1
1	1573	929.671995628144	0
1	2065	1196.451202306282	1
1	2066	1196.481010777192	0
1	2070	1197.951171045439	1
1	2071	1199.121214681492	0
1	5109	3019.538032534713	1
1	5116	3022.32418869421	0
1	5704	3390.781099985871	1
1	5711	3392.933276453744	0
1	5720	3397.079615789424	1
1	5724	3399.434999037197	0
1	6765	3918.621962907778	1
1	6766	3918.651397153961	0
1	6777	3922.267864747199	1
1	6779	3923.413201304846	0
1	9130	5351.345834687356	1
1	9139	5358.370082586301	0
1	11285	6837.739972425935	1
1	11289	6839.703629085355	0
1	11294	6840.893115569573	1
1	11296	6841.237002247876	0
1	11865	7179.879903401579	1
1	11876	7182.492365586339	0
1	11917	7196.972145957482	1
1	11924	7200.017755688071	0
1	12297	7390.934105631688	1
1	12301	7392.97709880092	0
1	12305	7394.581426530451	1
1	12306	7395.504814922032	0
1	15235	8986.474412148496	1
1	15236	8987.763788066048	0
1	15240	8989.245693522867	1
1	15241	8991.697127000535	0
1	15245	8993.364315586643	1
1	15246	8993.682522205974	0
1	15255	8996.897891459952	1
1	15256	9000.547480901279	0
1	16565	9845.729759022848	1
1	16566	9845.731533670737	0
1	17350	10241.683400362549	1
1	17366	10251.912318896658	0
1	17394	10259.71702864819	1
1	17396	10260.236102009841	0
1	18727	11016.216686171099	1
1	18739	11022.089264941298	0
1	18745	11023.725678331457	1
1	18746	11026.925034485869	0
1	22555	13296.724380311602	1
1	22556	13297.779684929172	0
1	22560	13299.324809917057	1
1	22566	13302.704872265891	0
1	22574	13304.60845720923	1
1	22581	13306.570481737569	0
1	25340	15074.83861974338	1
1	25341	15075.668595040981	0
1	26120	15528.148759919805	1
1	26121	15531.106199509619	0
1	26125	15532.432798262654	1
1	26126	15534.824025438762	0
1	26522	15779.273929582041	1
1	26524	15779.319590829499	0
1	27012	16054.225448150714	1
1	27016	16055.890066128815	0
1	27130	16094.305722646741	1
1	27139	16098.836854638345	0
1	27142	16099.999146993603	1
1	27147	16101.971793856244	2
1	27152	16103.827624507207	3
1	27156	16107.76033370899	2
1	27160	16109.157428169008	3
1	27161	16110.532143809013	2
1	27164	16112.08736801588	1
1	27170	16113.936288146228	2
1	27171	16116.618908594772	1
1	27174	16117.978095560176	0
1	27862	16440.397665546491	1
1	27864	16441.657156460746	0
1	27870	16443.939614162436	1
1	27871	16444.574687144021	0
1	28222	16640.739289728568	1
1	28228	16642.479843841314	0
1	28249	16649.290177672559	1
1	28251	16650.107847645251	0
1	28899	17088.092377986178	1
1	28904	17090.789951062396	0
1	30280	17955.288740182144	1
1	30281	17956.918230889687	0
1	30295	17962.03913630242	1
1	30306	17964.829115753366	0
1	35017	21295.397457546304	1
1	35019	21295.481500721049	0
1	35099	21320.726228292965	1
1	35111	21324.368583156419	0
1	35170	21346.101627156817	1
1	35174	21348.599445560047	0
1	35952	21755.079698871934	1
1	35956	21756.617493244767	0
1	36772	22178.788694140011	1
1	36776	22181.7812473332	0
1	36780	22183.024552510442	1
1	36781	22184.804339467125	0
1	41347	24625.682203191309	1
1	41351	24627.755259636105	0
1	41355	24629.599386449777	1
1	41356	24630.437795797254	0
1	41360	24632.041768091994	1
1	41361	24632.266270396086	0
1	41707	24848.569878295689	1
1	41709	24849.134915373785	0
1	42584	25356.343198861351	1
1	42586	25356.427572059487	0
1	42757	25442.618215052783	1
1	42759	25442.882306114615	0
1	42767	25445.805644059553	1
1	42771	25447.679697254958	0
1	46050	27209.989445384166	1
1	46051	27211.014337365933	0
1	46932	27759.552365958402	1
1	46934	27760.394618274885	0
1	46940	27763.189243004555	1
1	46941	27765.490396029781	0
1	49260	29126.686763175666	1
1	49261	29129.400222603273	0
1	49760	29506.05816064112	1
1	49761	29510.320350356639	0
1	49777	29515.000635884755	1
1	49779	29515.547231866091	0
2	0	0	0
2	15	8.371663840572	1
2	16	8.700190521529	0
2	20	9.736262520386	1
2	21	9.969585269628	0
2	25	9.992038872272	1
2	27	10.184934411163	2
2	28	11.569491268447	1
2	31	13.412482501133	0
2	35	14.083859376087	1
2	37	14.686602973357	2
2	38	14.926836348637	1
2	42	15.095867109602	2
2	44	16.488829534929	3
2	45	16.854511170215	2
2	49	17.69689987094	3
2	50	18.798133722073	2
2	53	20.208200742243	1
2	56	21.888639879724	0
2	60	22.153290648548	1
2	62	22.20150742631	2
2	64	23.772056605127	3
2	65	23.848743474981	2
2	69	24.821393863714	3
2	70	25.798846945292	2
2	74	26.632833051531	3
2	75	27.417577008097	2
2	79	28.543002044756	3
2	80	28.903557200483	2
2	84	29.36068620363	3
2	86	29.681598908662	4
2	87	30.183936379603	3
2	91	31.128722781052	4
2	92	31.8748991554	3
2	95	33.456820078506	2
2	98	34.949532387345	1
2	102	35.177063528626	2
2	104	36.104321794648	3
2	105	36.81986678069	2
2	108	38.16352829685	1
2	112	38.726088530579	2
2	113	39.477700892589	1
2	117	40.539568942357	2
2	119	40.664278377172	3
2	120	41.115488991826	2
2	124	41.149094705439	3
2	125	42.611769856266	2
2	129	42.892480248635	3
2	130	44.158443586841	2
2	134	44.702610679338	3
2	135	46.147422102593	2
2	138	47.491783401311	1
2	142	48.019173548321	2
2	144	48.51919679446	3
2	145	49.284678503626	2
2	149	49.287557042259	3
2	151	50.515808604612	4
2	153	50.654221499729	5
2	154	50.825841361412	4
2	158	51.690280525544	5
2	159	52.357750146591	4
2	163	52.417620407538	5
2	165	52.553140229883	6
2	166	54.09155876165	5
2	170	55.821662274036	6
2	171	55.916947171034	5
2	175	56.552770866561	6
2	176	57.664650306606	5
2	179	59.25618859654	4
2	182	61.219381726288	3
2	186	61.453080443186	4
2	187	62.666463870869	3
2	191	63.700304167239	4
2	192	64.34053961815	3
2	195	66.312516421766	2
2	198	67.870839897298	1
2	202	68.591020673269	2
2	203	69.598226553143	1
2	207	70.374335386426	2
2	208	71.469079863408	1
2	212	72.426657542609	2
2	214	72.533750652165	3
2	216	72.669378016271	4
2	217	72.916066791804	3
2	221	73.272268318565	4
2	222	74.50472697349	3
2	225	75.979556195566	2
2	229	76.361154610091	3
2	230	77.439097130799	2
2	233	78.771498249227	1
2	237	79.397952632981	2
2	238	80.303419667424	1
2	242	81.188021777362	2
2	243	82.123339968116	1
2	247	83.157885439849	2
2	248	83.411344391421	1
2	251	85.233915274717	0
2	255	85.6575898767	1
2	257	85.965056626775	2
2	258	87.143746437632	1
2	261	89.044606526137	0
2	280	97.890569231828	1
2	281	98.459473488059	0
2	340	152.039315835951	1
2	341	152.195097160809	0
2	355	160.725024760333	1
2	356	160.809648739485	0
2	360	161.158535456859	1
2	361	162.435764581276	0
2	405	231.256955802898	1
2	407	231.474007659966	2
2	408	232.665733938123	1
2	414	233.732622779014	2
2	417	234.288479986618	1
2	420	235.608069025556	0
2	424	235.705733791834	1
2	426	236.475023274465	2
2	427	236.826621316949	1
2	430	238.105639904196	0
2	434	238.496848434425	1
2	436	238.699189477959	2
2	437	239.759053032863	1
2	441	240.322560475631	2
2	443	240.851153242544	3
2	444	240.968485661614	2
2	447	242.19966759907	1
2	450	244.180638656038	0
2	454	245.3030774707	1
2	455	245.38910258321	0
2	459	246.205805374734	1
2	460	246.86115683766	0
2	464	247.875125402805	1
2	465	248.147037495691	0
2	469	249.941478902588	1
2	470	250.039996726084	0
2	474	251.356866605804	1
2	475	251.390110914055	0
2	487	256.084321088781	1
2	488	256.374578394573	0
2	505	261.877851230044	1
2	507	263.087395021625	2
2	508	263.249032131517	1
2	513	264.865843418361	0
2	517	265.937823630748	1
2	518	266.586214637132	0
2	522	267.584266027877	1
2	523	268.375885083647	0
2	530	270.232193599803	1
2	531	271.058053584145	0
2	547	279.05333695401	1
2	549	279.731521017277	2
2	550	279.952428869385	1
2	553	281.513291752379	0
2	557	282.408631455703	1
2	560	282.934345499094	0
2	570	286.360667071109	1
2	572	286.679444764773	2
2	573	286.718814832757	1
2	577	287.628231263293	2
2	578	287.968147099244	1
2	581	289.764006038609	0
2	607	302.589914138462	1
2	608	302.83409299947	0
2	612	304.094805930573	1
2	614	304.496253808346	2
2	615	304.521490132098	1
2	619	304.738864814379	2
2	620	305.887646364082	1
2	623	307.301716729101	0
2	635	310.97728991011	1
2	636	311.965263013102	0
2	645	314.985966804241	1
2	646	316.46137581279	0
2	650	317.948431929842	1
2	652	318.011665180283	2
2	653	318.017225707485	1
2	657	319.830625110167	2
2	658	319.870740902773	1
2	661	321.264358989685	0
2	670	324.584605274497	1
2	671	325.280886463168	0
2	675	326.497740481295	1
2	676	326.865626687835	0
2	680	327.395358614958	1
2	681	328.476221411209	0
2	685	329.863835276042	1
2	686	330.13138074493	0
2	695	336.46502903263	1
2	697	336.849814850143	2
2	698	337.827982170295	1
2	701	339.102103123229	0
2	705	340.50527639337	1
2	706	340.819106409673	0
2	710	341.339599387563	1
2	711	342.236229195793	0
2	720	351.202785582979	1
2	721	351.270438580744	0
2	735	364.962013770652	1
2	736	366.549365760984	0
2	750	377.626567270327	1
2	751	377.70478588608	0
2	755	378.369000273549	1
2	756	379.490883417846	0
2	760	380.139678635062	1
2	761	380.974774139793	0
2	765	382.274707916337	1
2	766	382.875999863305	0
2	787	391.054040805999	1
2	788	391.341677117105	0
2	807	399.750895330763	1
2	808	400.97263900417	0
2	815	402.658584577631	1
2	816	404.33584784384	0
2	825	407.744203001083	1
2	826	409.064787971572	0
2	840	415.333488852327	1
2	841	415.834887376211	0
2	860	444.134585911552	1
2	861	444.748750832435	0
2	870	447.587329547135	1
2	871	448.50171653585	0
2	925	488.564520218632	1
2	926	488.909944493303	0
2	930	490.367674185949	1
2	931	490.428089027459	0
2	935	491.195546732474	1
2	937	491.6749263753	2
2	938	491.710935892144	1
2	943	493.659075639749	0
2	952	495.18102502731	1
2	954	496.413622902286	2
2	955	496.731355800087	1
2	958	497.972921318913	0
2	965	500.42871354275	1
2	966	501.339265515635	0
2	970	501.998392750141	1
2	971	502.671836657243	0
2	975	503.259670593658	1
2	976	504.230829822624	0
2	1037	572.408358931073	1
2	1038	572.863982377321	0
2	1050	577.774191312122	1
2	1051	579.084167096976	0
2	1060	581.757756483927	1
2	1061	582.544431274783	0
2	1075	586.21239598319	1
2	1076	588.038122036827	0
2	1080	588.158223529408	1
2	1081	589.981222129387	0
2	1085	590.25735639497	1
2	1086	591.185279762705	0
2	1090	592.172339447252	1
2	1091	592.767187564221	0
2	1105	603.996680287177	1
2	1106	604.204670578564	0
2	1190	721.012728134086	1
2	1191	721.321048538318	0
2	1235	780.809957788491	1
2	1236	781.11448668391	0
2	1240	781.757690387813	1
2	1241	783.03842947409	0
2	1245	783.419567379666	1
2	1246	784.896307528582	0
2	1252	785.296604073929	1
2	1253	786.152639735308	0
2	1257	787.120095115842	1
2	1258	787.803425137889	0
2	1262	787.817273513394	1
2	1263	789.182336149928	0
2	1269	789.792349772025	1
2	1270	791.131155851115	0
2	1274	791.455692664959	1
2	1276	791.473026525358	2
2	1277	793.090817389828	1
2	1280	794.560697419946	0
2	1284	794.666846732864	1
2	1285	795.961987315123	0
2	1292	797.887010411293	1
2	1294	798.521151075126	2
2	1295	799.214691557368	1
2	1301	800.093925991769	2
2	1302	800.975036696909	1
2	1305	802.590820154367	0
2	1309	803.636761979734	1
2	1310	804.041987803956	0
2	1314	804.246788155369	1
2	1315	805.632562490558	0
2	1332	814.118632540262	1
2	1333	814.569006244374	0
2	1340	816.251252718425	1
2	1341	817.356353439299	0
2	1350	819.237120285157	1
2	1351	820.314789692593	0
2	1360	826.191451007301	1
2	1361	827.358551864802	0
2	1380	835.794178550708	1
2	1383	837.63734215528	0
2	1395	841.233749234476	1
2	1396	841.969885942454	0
2	1420	856.627344284329	1
2	1421	857.254756861412	0
2	1427	857.831247630954	1
2	1428	859.185944831044	0
2	1432	859.284521737968	1
2	1433	860.768903781333	0
2	1460	881.636878321045	1
2	1463	882.849327405788	0
2	1535	913.514553876952	1
2	1536	914.55674779474	0
2	1565	928.458837147017	1
2	1567	928.552153546927	2
2	1568	928.639404413849	1
2	1572	929.423942309285	2
2	1575	930.499521512538	1
2	1582	932.145133862644	0
2	1586	933.884305277183	1
2	1587	933.971264869161	0
2	1591	934.329412028071	1
2	1593	934.953184599683	2
2	1595	934.99776082753	3
2	1597	935.123886442173	4
2	1598	935.176366329379	3
2	1601	936.908330228179	2
2	1604	938.412244165316	1
2	1608	938.507855967167	2
2	1610	939.126998244351	3
2	1612	939.402748075232	4
2	1613	939.694939344376	3
2	1616	941.024159823358	2
2	1620	941.239927687473	3
2	1621	942.622074730694	2
2	1625	942.949208922608	3
2	1626	944.273277661577	2
2	1630	944.986937012909	3
2	1631	945.572614008561	2
2	1634	946.996066190489	1
2	1638	947.888496383488	2
2	1639	948.960607515648	1
2	1643	949.225840992315	2
2	1645	949.329983428426	3
2	1646	950.284763109684	2
2	1650	951.566289219229	3
2	1651	951.848308841512	2
2	1654	953.473126774468	1
2	1658	955.270147627089	2
2	1659	955.305035541952	1
2	1662	957.192842815258	0
2	1666	957.701253618999	1
2	1667	958.965342628397	0
2	1671	959.501884767773	1
2	1672	960.661056192778	0
2	1676	961.465490995109	1
2	1677	962.558140923642	0
2	1681	963.807586568974	1
2	1682	964.017996061966	0
2	1694	967.449723086328	1
2	1695	968.272030427307	0
2	1714	974.368829813947	1
2	1715	974.814200668222	0
2	1722	977.156297748337	1
2	1725	978.309773541054	0
2	1732	980.982030741852	1
2	1733	981.610150620713	0
2	1737	982.057029078874	1
2	1739	982.467748294303	2
2	1740	983.215474648028	1
2	1744	984.357909632242	2
2	1745	984.649206946976	1
2	1750	986.395980605855	0
2	1754	986.518719032304	1
2	1755	987.801115352287	0
2	1810	1022.252553744351	1
2	1811	1022.954550275126	0
2	1835	1032.43481358922	1
2	1836	1033.791077174588	0
2	1845	1039.832110488156	1
2	1846	1040.982345042061	0
2	1855	1045.148101463922	1
2	1856	1045.219380960213	0
2	1860	1046.494497006487	1
2	1861	1046.550155658061	0
2	1865	1047.683201386085	1
2	1866	1048.109371014471	0
2	1870	1049.679102623617	1
2	1872	1049.683252174053	2
2	1873	1050.092004530663	1
2	1877	1050.81821448428	2
2	1878	1051.396438053036	1
2	1882	1051.635837770871	2
2	1883	1053.236592296483	1
2	1887	1053.347548560721	2
2	1888	1054.453851884576	1
2	1892	1054.653401561001	2
2	1893	1056.112357694442	1
2	1897	1056.509885142344	2
2	1898	1057.953035918596	1
2	1901	1059.559042252014	0
2	1920	1079.719915132355	1
2	1921	1080.659507645753	0
2	1945	1110.545662642187	1
2	1946	1111.766536691112	0
2	1950	1111.915099837318	1
2	1951	1113.241276157906	0
2	1955	1113.933852798276	1
2	1956	1115.001533702088	0
2	1990	1146.202108893176	1
2	1991	1146.494484927488	0
2	2025	1183.581657150948	1
2	2026	1183.880048225205	0
2	2035	1186.527691815829	1
2	2036	1186.6249530611	0
2	2155	1262.885181757788	1
2	2156	1263.151231155222	0
2	2165	1264.663502602481	1
2	2166	1266.061558360284	0
2	2180	1272.040787428151	1
2	2181	1272.305823388253	0
2	2190	1275.599263228515	1
2	2191	1276.362833298414	0
2	2210	1297.637451356133	1
2	2211	1299.305723188088	0
2	2225	1303.434465152707	1
2	2226	1303.941329496944	0
2	2232	1304.732241825736	1
2	2233	1305.276148393409	0
2	2237	1305.903024814199	1
2	2238	1306.974373224595	0
2	2245	1310.128119035638	1
2	2246	1310.485734756136	0
2	2255	1312.536569969365	1
2	2256	1314.205770566015	0
2	2265	1316.850271665374	1
2	2267	1317.440800249359	2
2	2268	1318.609769940246	1
2	2272	1318.755747013945	2
2	2273	1320.55497185519	1
2	2277	1320.735609480754	2
2	2278	1321.791530670654	1
2	2282	1323.140462281472	2
2	2283	1323.246250067148	1
2	2287	1324.558286539206	2
2	2288	1324.685667734462	1
2	2291	1326.274062386955	0
2	2305	1333.755328823565	1
2	2306	1334.768244716557	0
2	2315	1339.153515265726	1
2	2316	1340.007290325083	0
2	2320	1341.578108273136	1
2	2321	1341.769012155339	0
2	2325	1342.031543143045	1
2	2327	1342.10815967555	2
2	2328	1343.218273668878	1
2	2331	1345.007677045979	0
2	2340	1346.555566790613	1
2	2341	1347.919886405867	0
2	2355	1351.68253798789	1
2	2356	1352.363866296698	0
2	2440	1430.010976913781	1
2	2442	1430.792012304745	2
2	2443	1430.84482363279	1
2	2446	1432.533037679484	0
2	2450	1433.136368502676	1
2	2451	1434.087346139392	0
2	2455	1434.210055662011	1
2	2457	1435.445670484016	2
2	2458	1435.5378269831	1
2	2462	1436.666623719817	2
2	2463	1436.945952606788	1
2	2466	1438.885320143988	0
2	2470	1440.105502623797	1
2	2471	1440.433039704924	0
2	2480	1442.587761161086	1
2	2481	1443.963185936426	0
2	2487	1444.539079187388	1
2	2488	1445.618627770272	0
2	2492	1446.942573748606	1
2	2493	1447.576354492296	0
2	2505	1452.245572935142	1
2	2508	1453.621486713955	0
2	2515	1455.591617883405	1
2	2516	1457.136168511057	0
2	2535	1465.472776388144	1
2	2536	1465.565427797696	0
2	2545	1468.40149357312	1
2	2547	1469.108711687898	2
2	2548	1469.203748757614	1
2	2551	1471.137821002154	0
2	2555	1471.526370131771	1
2	2556	1472.454970307125	0
2	2560	1473.947881765001	1
2	2561	1474.19299500197	0
2	2565	1474.341539192637	1
2	2566	1475.862510553969	0
2	2570	1476.505779872285	1
2	2572	1476.510293317586	2
2	2573	1477.250958009845	1
2	2576	1478.561582360639	0
2	2595	1512.029804697091	1
2	2596	1512.595218682604	0
2	2660	1562.963124310097	1
2	2661	1563.586712592375	0
2	2665	1564.318332043266	1
2	2666	1565.315938022268	0
2	2675	1571.478328663586	1
2	2676	1572.006125393984	0
2	2680	1572.807190384032	1
2	2681	1573.715558927608	0
2	2685	1574.007787568288	1
2	2686	1575.531236823936	0
2	2690	1575.847541554793	1
2	2691	1577.071685234373	0
2	2715	1590.152711353152	1
2	2716	1590.97189757075	0
2	2725	1593.75299010671	1
2	2726	1593.765786381027	0
2	2735	1596.551965270521	1
2	2736	1596.987325633464	0
2	2755	1602.368335861744	1
2	2757	1603.289840892928	2
2	2758	1603.5318775852	1
2	2761	1604.803151912687	0
2	2770	1608.065989458053	1
2	2771	1608.537591455391	0
2	2785	1612.321379448678	1
2	2786	1613.565542798733	0
2	2790	1613.70056064716	1
2	2793	1614.986043257882	0
2	2797	1615.159080817652	1
2	2798	1616.209714593236	0
2	2815	1627.276526452389	1
2	2816	1628.75179769693	0
2	2840	1646.901610872195	1
2	2841	1647.403028989515	0
2	2860	1657.048667691328	1
2	2862	1657.385054015849	2
2	2863	1658.046771880184	1
2	2867	1659.817068873588	2
2	2868	1659.955726964344	1
2	2871	1661.633072975036	0
2	2880	1664.239983925032	1
2	2883	1664.790667973272	0
2	2890	1667.194661576532	1
2	2891	1668.072482013516	0
2	2897	1669.246238549192	1
2	2899	1670.013230190744	2
2	2900	1670.051872944273	1
2	2903	1671.700249704905	0
2	2907	1672.048983621406	1
2	2908	1673.532915007696	0
2	2917	1675.019182576806	1
2	2918	1676.474186443911	0
2	2925	1678.28456867455	1
2	2927	1679.224920801785	2
2	2930	1679.692218027823	1
2	2937	1681.304176786729	0
2	2943	1681.897501150361	1
2	2944	1682.76387756616	0
2	2948	1684.031742124148	1
2	2949	1684.620201832057	0
2	2964	1691.578079624136	1
2	2965	1691.71717316229	0
2	2974	1694.06399966475	1
2	2975	1694.9228599092	0
2	3005	1708.174473891708	1
2	3006	1708.214593261783	0
2	3020	1712.981007025827	1
2	3021	1713.770648281337	0
2	3025	1713.935845889858	1
2	3027	1714.352951438644	2
2	3028	1715.392327405946	1
2	3032	1716.094147690332	2
2	3034	1716.187767436376	3
2	3035	1717.32534208993	2
2	3038	1718.818618900949	1
2	3042	1719.468988432078	2
2	3043	1720.469143000306	1
2	3047	1720.502259594873	2
2	3048	1722.268769702749	1
2	3051	1723.968845573129	0
2	3055	1724.190205423226	1
2	3056	1725.232446549522	0
2	3060	1726.571580303667	1
2	3062	1726.697234449293	2
2	3063	1726.987211691091	1
2	3066	1728.768505499387	0
2	3100	1768.208207249666	1
2	3101	1769.327306608351	0
2	3110	1774.74027205301	1
2	3111	1774.908072813297	0
2	3115	1775.715704728552	1
2	3117	1776.344441858144	2
2	3118	1776.82407979283	1
2	3121	1778.491836143355	0
2	3130	1782.981822549496	1
2	3131	1783.679016379541	0
2	3155	1806.680303766202	1
2	3156	1807.320754115419	0
2	3160	1809.055980897361	1
2	3161	1809.27841799012	0
2	3165	1809.873714667108	1
2	3166	1810.509092077935	0
2	3185	1823.165062677348	1
2	3186	1824.255252088763	0
2	3190	1824.410861107167	1
2	3192	1825.528024068368	2
2	3193	1825.655093955964	1
2	3196	1826.954520920448	0
2	3200	1827.148617551692	1
2	3203	1828.337509303696	0
2	3207	1828.657582541794	1
2	3209	1830.120693955393	2
2	3210	1830.156246799945	1
2	3214	1830.330171672406	2
2	3215	1831.927956845394	1
2	3218	1833.158711637153	0
2	3265	1880.735412505796	1
2	3266	1881.699316515437	0
2	3270	1882.050741695532	1
2	3271	1882.940998668632	0
2	3275	1883.610356596091	1
2	3276	1884.856549342385	0
2	3280	1885.451396702098	1
2	3281	1886.614181036165	0
2	3290	1889.242952367586	1
2	3291	1890.716009134437	0
2	3310	1914.901589128586	1
2	3311	1916.717851826517	0
2	3315	1917.209381084723	1
2	3316	1918.642136164909	0
2	3320	1919.767796551977	1
2	3321	1920.602529085582	0
2	3325	1921.55730020587	1
2	3326	1922.29972430185	0
2	3330	1923.67219380377	1
2	3331	1924.037779828688	0
2	3350	1942.521212233301	1
2	3351	1943.912819304541	0
2	3355	1944.092053764504	1
2	3356	1945.539370794259	0
2	3370	1952.784898634408	1
2	3371	1953.602460289839	0
2	3375	1954.433347364025	1
2	3376	1955.448525923769	0
2	3380	1955.829290161437	1
2	3381	1957.104587403218	0
2	3385	1957.809568373581	1
2	3387	1958.211584676987	2
2	3388	1958.715533663238	1
2	3391	1960.663543339724	0
2	3407	1965.694385541024	1
2	3408	1966.093229858453	0
2	3415	1968.271983387023	1
2	3416	1969.491798063616	0
2	3425	1971.615066861551	1
2	3426	1972.827323065271	0
2	3440	1980.514464014694	1
2	3441	1981.83754274551	0
2	3460	1990.649181953572	1
2	3461	1991.622768946363	0
2	3470	1997.45149378233	1
2	3471	1997.624434379343	0
2	3475	1998.060854652224	1
2	3476	1998.977579531301	0
2	3480	1999.306473796697	1
2	3481	2000.493807730865	0
2	3485	2000.826735503919	1
2	3487	2001.273506609307	2
2	3488	2002.251998161007	1
2	3492	2002.78504422314	2
2	3493	2004.166199146066	1
2	3497	2004.519032223358	2
2	3499	2005.098150289447	3
2	3500	2005.828640548181	2
2	3504	2007.409952537715	3
2	3505	2007.50398833644	2
2	3509	2007.659452339126	3
2	3510	2008.863205868419	2
2	3514	2009.224570351408	3
2	3515	2010.592127708573	2
2	3518	2012.524080036622	1
2	3521	2014.42090797652	0
2	3540	2044.691605181194	1
2	3541	2045.47287024307	0
2	3545	2046.95165146873	1
2	3546	2047.276623023031	0
2	3575	2070.337157261059	1
2	3576	2070.498848614836	0
2	3585	2073.079680862334	1
2	3586	2074.301629529742	0
2	3595	2076.98014380728	1
2	3596	2077.326953425665	0
2	3620	2094.090977240817	1
2	3621	2094.543018136679	0
2	3625	2096.241384204688	1
2	3626	2096.345939320273	0
2	3647	2107.861226569531	1
2	3648	2108.021705678106	0
2	3652	2108.319164020353	1
2	3654	2108.35937493981	2
2	3656	2109.268633957132	3
2	3657	2109.883911191859	2
2	3660	2111.292229731754	1
2	3665	2112.777031148039	0
2	3669	2113.142071164836	1
2	3670	2114.67699980028	0
2	3677	2116.01250867359	1
2	3679	2116.783329919413	2
2	3680	2117.795253330097	1
2	3683	2119.319463035278	0
2	3692	2122.224196274596	1
2	3693	2122.655716131627	0
2	3705	2126.478561494305	1
2	3706	2127.433250208758	0
2	3725	2138.739839189939	1
2	3726	2140.048447726617	0
2	3750	2155.172210522822	1
2	3751	2156.719751747443	0
2	3760	2159.618758232978	1
2	3762	2159.886903787995	2
2	3763	2160.152553746595	1
2	3767	2160.358914707246	2
2	3770	2162.011186910725	1
2	3773	2163.938325795649	0
2	3825	2239.816023376113	1
2	3828	2240.005100615189	0
2	3832	2240.014656977578	1
2	3833	2241.891111140937	0
2	3840	2243.555589129847	1
2	3841	2244.807547171094	0
2	3845	2245.11520258453	1
2	3849	2246.190975527937	2
2	3850	2246.781276547775	1
2	3854	2247.08004306411	2
2	3855	2248.19076861614	1
2	3859	2249.51508448423	2
2	3860	2250.083082319103	1
2	3864	2250.106856818298	2
2	3868	2251.359789821027	3
2	3869	2252.060690857708	2
2	3874	2253.389788571424	1
2	3878	2253.480493217744	2
2	3880	2254.795747340832	3
2	3882	2254.840462801355	4
2	3883	2255.260503855958	3
2	3888	2256.886210717312	2
2	3892	2257.044752156331	3
2	3893	2258.62486867053	2
2	3897	2259.179680576792	3
2	3898	2260.257079153559	2
2	3901	2261.77735028421	1
2	3904	2263.106436905502	0
2	3914	2266.504823800652	1
2	3916	2266.507044721318	2
2	3920	2266.992723669694	3
2	3921	2268.181942007928	2
2	3924	2269.483674757047	1
2	3927	2271.047306853211	0
2	3936	2273.991198564468	1
2	3937	2274.707874128087	0
2	3941	2274.845948259024	1
2	3942	2276.465608173473	0
2	3951	2278.336401875585	1
2	3953	2278.598511312798	2
2	3955	2279.096769745479	3
2	3957	2279.196262975721	4
2	3958	2279.889463174393	3
2	3961	2281.357800731672	2
2	3964	2283.278903796947	1
2	3968	2283.368676522935	2
2	3969	2284.499417047067	1
2	3972	2286.013497187248	0
2	3979	2287.584700923189	1
2	3981	2288.214551854784	2
2	3982	2288.967987895622	1
2	3985	2290.436597407661	0
2	4000	2298.500710509739	1
2	4003	2299.321246470332	0
2	4020	2309.280576355855	1
2	4021	2309.378395398841	0
2	4035	2315.421249292169	1
2	4036	2316.35256840563	0
2	4040	2317.170203215398	1
2	4042	2317.398193332845	2
2	4043	2317.614750220204	1
2	4047	2317.665374041055	2
2	4049	2318.74777191585	3
2	4050	2319.249111491205	2
2	4053	2320.507930008644	1
2	4056	2322.417434263738	0
2	4060	2323.245404481022	1
2	4062	2323.577191848065	2
2	4063	2324.058624190601	1
2	4067	2324.934735138531	2
2	4068	2325.798338653284	1
2	4071	2327.424917188796	0
2	4075	2328.331471772164	1
2	4077	2328.811389104008	2
2	4079	2328.962172518852	3
2	4080	2329.373750918309	2
2	4083	2331.119989050316	1
2	4087	2332.34246298352	2
2	4088	2332.969780091891	1
2	4091	2334.703789557652	0
2	4105	2354.254860068541	1
2	4106	2355.033491116704	0
2	4145	2387.133235783285	1
2	4148	2387.778540857474	0
2	4155	2389.823955852751	1
2	4157	2391.022508498274	2
2	4158	2391.4576562937	1
2	4161	2393.179889319243	0
2	4165	2393.762335015231	1
2	4167	2394.226977553485	2
2	4169	2394.802346305826	3
2	4170	2394.944302528689	2
2	4174	2395.674298127477	3
2	4175	2396.300564427266	2
2	4178	2398.12936765399	1
2	4182	2399.049264744195	2
2	4184	2399.65942882319	3
2	4185	2399.744866968097	2
2	4189	2401.253827185453	3
2	4190	2401.481560241768	2
2	4194	2403.048291003023	3
2	4195	2403.21719865516	2
2	4198	2404.494526759686	1
2	4202	2405.42424258875	2
2	4203	2406.484637972305	1
2	4207	2407.027993975009	2
2	4208	2407.980872520956	1
2	4211	2409.918671395595	0
2	4220	2412.770516615807	1
2	4221	2413.740139766491	0
2	4290	2477.262781584002	1
2	4292	2477.802237609135	2
2	4294	2478.228073852604	3
2	4295	2478.399636635718	2
2	4298	2480.062678037372	1
2	4302	2480.735170488729	2
2	4304	2481.297509717279	3
2	4305	2481.790974745129	2
2	4308	2483.06800246646	1
2	4312	2483.855815241143	2
2	4313	2484.368922716541	1
2	4317	2484.41530344561	2
2	4322	2486.127562958723	1
2	4326	2487.605982054388	2
2	4327	2487.812465490377	1
2	4331	2488.70284469623	2
2	4332	2489.718186584278	1
2	4335	2491.592388048931	0
2	4339	2492.508516400633	1
2	4340	2493.079408988706	0
2	4375	2519.177314085517	1
2	4376	2520.467568112432	0
2	4380	2520.871522355832	1
2	4381	2522.104382985539	0
2	4385	2522.566097838515	1
2	4386	2523.822694129578	0
2	4395	2535.784622192218	1
2	4397	2535.989809740067	2
2	4399	2537.356842439349	3
2	4400	2537.607523141191	2
2	4404	2538.051257567532	3
2	4405	2538.887664174982	2
2	4408	2540.834550789692	1
2	4412	2542.423545636116	2
2	4413	2542.441706345737	1
2	4417	2542.817782273461	2
2	4418	2543.872209583543	1
2	4421	2545.343014590204	0
2	4430	2547.817929977805	1
2	4431	2548.740825333287	0
2	4437	2550.038834359354	1
2	4439	2550.098794935821	2
2	4440	2550.307283288267	1
2	4443	2551.963693788488	0
2	4450	2554.451542084857	1
2	4451	2555.483155277957	0
2	4465	2560.913834567238	1
2	4466	2561.093505007132	0
2	4480	2570.510642523286	1
2	4481	2570.672854322507	0
2	4495	2576.079507450618	1
2	4496	2576.694911319723	0
2	4500	2576.843705556536	1
2	4501	2578.644789139142	0
2	4507	2579.831026200351	1
2	4508	2580.37904606886	0
2	4515	2582.732239847759	1
2	4516	2583.705867292507	0
2	4565	2641.187651277438	1
2	4566	2642.408031167335	0
2	4580	2646.729476365994	1
2	4582	2646.786071900013	2
2	4583	2647.523627125396	1
2	4587	2647.746226372344	2
2	4590	2649.351678227557	1
2	4593	2651.042710341251	0
2	4600	2653.721511020689	1
2	4601	2654.173896564468	0
2	4635	2681.212405953765	1
2	4636	2682.253289622254	0
2	4645	2686.988471314558	1
2	4648	2687.872178824394	0
2	4652	2688.336194343822	1
2	4653	2689.742322453632	0
2	4657	2689.928989764505	1
2	4658	2691.16798673734	0
2	4662	2691.646087219187	1
2	4663	2693.019251883923	0
2	4685	2711.72717088236	1
2	4686	2712.234630971959	0
2	4735	2782.365425268761	1
2	4736	2782.759617386597	0
2	4740	2783.320884899983	1
2	4741	2784.300304174448	0
2	4745	2785.61396717746	1
2	4746	2786.099653395663	0
2	4750	2786.620526874147	1
2	4752	2787.630608492818	2
2	4753	2787.903790975946	1
2	4757	2788.454245230934	2
2	4758	2789.424704233023	1
2	4761	2790.958023268382	0
2	4850	2893.31281510698	1
2	4851	2893.932898375584	0
2	4855	2894.379315956248	1
2	4856	2895.164588561101	0
2	4865	2896.998338633445	1
2	4866	2898.732613722741	0
2	4902	2944.615330875463	1
2	4903	2945.010376139329	0
2	4935	2965.148586776193	1
2	4936	2965.294427224646	0
2	4940	2966.687610093867	1
2	4941	2966.824664821501	0
2	4947	2967.051691556201	1
2	4949	2967.924901328184	2
2	4950	2968.028287039536	1
2	4953	2969.492880901906	0
2	4957	2969.497564080437	1
2	4958	2970.891753732997	0
2	4962	2971.160202888634	1
2	4963	2972.11000648814	0
2	4975	2976.016086610581	1
2	4976	2976.935391386065	0
2	4985	2979.865278676447	1
2	4988	2981.218221002068	0
2	4992	2981.569585245873	1
2	4993	2982.926641503159	0
2	4997	2984.084469167106	1
2	4998	2984.798814380165	0
2	5002	2985.631242756099	1
2	5004	2985.98520427274	2
2	5005	2986.713085713606	1
2	5008	2988.011179060857	0
2	5012	2988.230439048941	1
2	5014	2988.775394442982	2
2	5016	2988.863097464582	3
2	5018	2989.274294188933	4
2	5019	2989.827308895807	3
2	5023	2989.885277106942	4
2	5024	2991.198803325552	3
2	5028	2991.304318012235	4
2	5029	2992.828277647677	3
2	5033	2993.430531430419	4
2	5035	2994.25719149274	5
2	5036	2994.387018821011	4
2	5040	2994.91545828519	5
2	5041	2995.602172932396	4
2	5045	2995.701760184464	5
2	5046	2996.957464580978	4
2	5050	2997.160314807893	5
2	5051	2998.580292016449	4
2	5055	2998.79003600519	5
2	5057	2999.43565184884	6
2	5058	3000.533309100563	5
2	5061	3002.097798091168	4
2	5064	3003.329127543042	3
2	5068	3004.055194399641	4
2	5069	3005.239629697795	3
2	5072	3006.728168965685	2
2	5075	3008.703652169364	1
2	5078	3010.095144392545	0
2	5082	3010.729494290494	1
2	5085	3011.784924052278	0
2	5089	3013.053318055296	1
2	5090	3013.179292606557	0
2	5097	3016.173612641629	1
2	5098	3016.405844298931	0
2	5105	3017.735794544517	1
2	5107	3019.071539135424	2
2	5108	3019.538032534713	1
2	5111	3021.308244141931	0
2	5115	3021.61796083519	1
2	5118	3023.003878204333	0
2	5127	3024.871090169293	1
2	5129	3026.476403321221	2
2	5130	3026.54855389669	1
2	5133	3028.06493653133	0
2	5137	3029.251221880009	1
2	5140	3029.795489612775	0
2	5144	3030.492156406534	1
2	5145	3031.525332199218	0
2	5155	3036.091207705582	1
2	5156	3036.237307771849	0
2	5165	3038.474390651885	1
2	5166	3039.550535282358	0
2	5170	3040.273287338016	1
2	5171	3041.38834933681	0
2	5175	3042.275967556449	1
2	5177	3042.520267579268	2
2	5179	3042.768949589296	3
2	5180	3042.786675722763	2
2	5183	3044.086573227547	1
2	5186	3045.439199711807	0
2	5200	3060.388205314383	1
2	5201	3061.546661603196	0
2	5225	3084.953775395098	1
2	5226	3085.337559756442	0
2	5230	3085.726422888674	1
2	5232	3086.255800520219	2
2	5233	3086.621524056039	1
2	5236	3087.877631008617	0
2	5245	3090.523955157267	1
2	5247	3091.187120296536	2
2	5248	3091.361546338105	1
2	5251	3093.109280114376	0
2	5255	3094.88650622725	1
2	5256	3094.927189442829	0
2	5300	3156.962340338741	1
2	5301	3158.022711428302	0
2	5325	3178.750980977486	1
2	5326	3178.797367893902	0
2	5330	3178.877387087912	1
2	5333	3180.625309816932	0
2	5340	3182.549682330867	1
2	5341	3183.221440746261	0
2	5347	3184.583567765194	1
2	5348	3185.006792661546	0
2	5465	3261.280169475662	1
2	5466	3261.748715074339	0
2	5490	3273.082375684792	1
2	5493	3274.463785150682	0
2	5500	3275.933443504997	1
2	5501	3277.408939811436	0
2	5505	3277.917658979934	1
2	5508	3279.178960757551	0
2	5512	3280.310447850429	1
2	5513	3280.628111270477	0
2	5522	3283.915452011602	1
2	5523	3284.070023714599	0
2	5527	3284.941305904457	1
2	5528	3285.52831605341	0
2	5545	3293.405175418959	1
2	5546	3293.500197456785	0
2	5555	3296.480367773184	1
2	5556	3297.554694279563	0
2	5565	3300.099541331144	1
2	5567	3300.473478193985	2
2	5568	3300.729348971148	1
2	5573	3302.207511435089	0
2	5585	3315.277841715838	1
2	5587	3316.432893069567	2
2	5588	3316.569781563265	1
2	5592	3317.127736356341	2
2	5593	3318.284147671072	1
2	5597	3319.086728292299	2
2	5598	3319.493379048651	1
2	5602	3321.232491916804	2
2	5603	3321.386698743908	1
2	5607	3321.78639428526	2
2	5608	3322.683411919719	1
2	5611	3324.030706479608	0
2	5620	3328.032583505269	1
2	5622	3328.0897672412	2
2	5623	3329.252588068712	1
2	5626	3330.678508401121	0
2	5630	3331.015345035629	1
2	5631	3332.549858083966	0
2	5650	3357.219913634912	1
2	5651	3358.172801543115	0
2	5655	3358.741249324974	1
2	5657	3358.966199058484	2
2	5658	3359.513580744243	1
2	5661	3360.757889216109	0
2	5670	3379.445140180223	1
2	5671	3380.842884350527	0
2	5675	3380.880066042319	1
2	5678	3382.144450991373	0
2	5682	3382.675108206777	1
2	5683	3383.897966885153	0
2	5700	3389.586601834875	1
2	5702	3390.424594742436	2
2	5703	3390.781099985871	1
2	5707	3391.108396575858	2
2	5708	3392.2341652514	1
2	5713	3393.447076699841	0
2	5730	3400.52420638664	1
2	5733	3401.609610522638	0
2	5740	3404.305182480554	1
2	5741	3404.438749613153	0
2	5750	3411.238667934026	1
2	5751	3412.150533652545	0
2	5760	3417.972990846343	1
2	5761	3418.064439889607	0
2	5765	3418.529193292517	1
2	5766	3419.686652750154	0
2	5800	3449.536313365081	1
2	5801	3450.661470542054	0
2	5805	3451.673854552281	1
2	5806	3451.897593700278	0
2	5815	3453.572413209257	1
2	5816	3454.561038683842	0
2	5820	3456.261080779821	1
2	5821	3456.517031133103	0
2	5835	3460.667565992822	1
2	5836	3462.093941311795	0
2	5845	3464.787200965419	1
2	5846	3465.62211470611	0
2	5860	3475.075533758433	1
2	5861	3476.776548917518	0
2	5875	3502.726475305879	1
2	5876	3503.47957075646	0
2	5900	3518.073057856414	1
2	5901	3518.413900166678	0
2	5910	3521.728193671784	1
2	5912	3522.15251232617	2
2	5916	3522.833995680046	3
2	5917	3523.146002106228	2
2	5921	3523.56254992358	3
2	5922	3524.641502490685	2
2	5926	3524.937050084687	3
2	5927	3526.496726202265	2
2	5931	3526.691510976847	3
2	5933	3527.37297822986	4
2	5934	3527.891447027073	3
2	5938	3528.642189338981	4
2	5939	3529.478526476816	3
2	5943	3530.732020292827	4
2	5944	3531.017574995988	3
2	5948	3531.183939235047	4
2	5949	3532.244025108636	3
2	5952	3533.764301346474	2
2	5956	3533.957997126871	3
2	5957	3535.116574897849	2
2	5961	3535.866327138993	3
2	5962	3536.45376401008	2
2	5965	3537.930741850705	1
2	5968	3539.258559757703	0
2	5980	3543.43392400251	1
2	5981	3544.761299816651	0
2	5985	3545.015903037089	1
2	5987	3545.968036220351	2
2	5989	3546.549543736381	3
2	5990	3546.654472931048	2
2	5993	3548.328266882097	1
2	5996	3549.767500271408	0
2	6010	3554.647270031551	1
2	6012	3554.710563396734	2
2	6013	3554.724252129536	1
2	6018	3556.484246235158	0
2	6022	3556.801015287341	1
2	6024	3557.753124587953	2
2	6025	3557.7916051643	1
2	6029	3558.00877889545	2
2	6030	3559.594645988944	1
2	6034	3560.268301336063	2
2	6035	3560.847244551036	1
2	6039	3561.596429751002	2
2	6040	3562.649978518117	1
2	6043	3564.001006030854	0
2	6047	3565.807647786605	1
2	6048	3565.851335896183	0
2	6052	3566.514644186791	1
2	6053	3567.119419289943	0
2	6065	3581.878967976738	1
2	6066	3582.815198042604	0
2	6095	3610.531911847994	1
2	6096	3610.935771302565	0
2	6130	3645.073524456309	1
2	6131	3646.072629518038	0
2	6140	3649.297044651225	1
2	6141	3650.133537474945	0
2	6150	3651.849215301492	1
2	6151	3653.465676715337	0
2	6155	3654.816361843612	1
2	6156	3655.087027197629	0
2	6160	3655.174881340106	1
2	6161	3656.700295159891	0
2	6165	3656.880131336483	1
2	6166	3658.474876187481	0
2	6170	3659.375419828722	1
2	6171	3659.917698761374	0
2	6175	3660.11356186665	1
2	6176	3661.14889980603	0
2	6180	3661.430219080772	1
2	6181	3662.389506475367	0
2	6190	3665.631304986232	1
2	6191	3666.620061445778	0
2	6225	3692.285315892422	1
2	6227	3692.964567225568	2
2	6228	3693.014798162537	1
2	6231	3694.608354285205	0
2	6240	3696.354477223778	1
2	6241	3697.961504995175	0
2	6245	3698.231571804531	1
2	6247	3699.01717159348	2
2	6248	3699.306076956079	1
2	6251	3701.041620274731	0
2	6255	3701.222600328444	1
2	6256	3702.380303623253	0
2	6260	3703.911914862857	1
2	6261	3704.292631003359	0
2	6265	3704.844914161431	1
2	6266	3705.740502139838	0
2	6272	3706.920975847937	1
2	6273	3707.452569572353	0
2	6277	3708.071306055137	1
2	6278	3709.010850649611	0
2	6282	3709.236137693305	1
2	6283	3710.29788668538	0
2	6287	3710.336028787474	1
2	6289	3710.754426282876	2
2	6291	3711.058749765167	3
2	6292	3712.271230249764	2
2	6296	3713.641550545689	3
2	6297	3713.717851163545	2
2	6300	3715.492833064408	1
2	6304	3715.758054300489	2
2	6305	3717.449844741174	1
2	6308	3719.223067930439	0
2	6312	3720.224647270779	1
2	6313	3720.482760752277	0
2	6320	3722.847281873471	1
2	6321	3724.057508563349	0
2	6330	3726.918878701983	1
2	6331	3727.442596868897	0
2	6360	3753.417713439077	1
2	6361	3754.328953316284	0
2	6380	3762.766110545741	1
2	6381	3763.879872571306	0
2	6390	3767.149463971779	1
2	6393	3768.128554326675	0
2	6400	3770.352670374004	1
2	6402	3771.005201559078	2
2	6403	3771.088401111408	1
2	6406	3772.520588634915	0
2	6415	3775.299467852956	1
2	6416	3776.738742845548	0
2	6430	3780.714078831238	1
2	6431	3781.618405905765	0
2	6445	3791.813905309095	1
2	6446	3792.34740473717	0
2	6450	3793.244719482562	1
2	6451	3793.698184060636	0
2	6455	3794.264107995362	1
2	6456	3794.958139758515	0
2	6475	3802.428628550732	1
2	6476	3803.630774124056	0
2	6485	3805.571295244546	1
2	6486	3806.817278154098	0
2	6495	3808.227571509326	1
2	6496	3809.661191360874	0
2	6505	3811.92165911811	1
2	6507	3812.141260708199	2
2	6508	3812.618057692273	1
2	6511	3813.875745344384	0
2	6527	3820.039962576504	1
2	6528	3820.404397376323	0
2	6535	3822.069312607484	1
2	6537	3822.618628980621	2
2	6539	3823.493109732617	3
2	6540	3823.558208181778	2
2	6543	3824.948873465391	1
2	6547	3826.092897245014	2
2	6548	3826.780677029746	1
2	6552	3828.346750575187	2
2	6553	3828.630175794172	1
2	6557	3829.118403490207	2
2	6558	3829.832226468692	1
2	6561	3831.722535561281	0
2	6580	3847.80017332055	1
2	6581	3849.234207737834	0
2	6585	3849.693166203781	1
2	6586	3850.942522527852	0
2	6605	3861.96222489583	1
2	6606	3861.97618162385	0
2	6610	3863.259661156535	1
2	6611	3863.379736669127	0
2	6615	3864.279015420204	1
2	6616	3865.078551989559	0
2	6620	3865.905608452058	1
2	6621	3866.310485597465	0
2	6630	3869.460894103003	1
2	6632	3869.471606155404	2
2	6633	3870.031411022988	1
2	6637	3870.458645478997	2
2	6639	3870.831644215916	3
2	6641	3870.857372895857	4
2	6642	3871.562634133843	3
2	6650	3872.558409487041	4
2	6651	3872.887888075893	3
2	6654	3874.678227118512	2
2	6658	3875.139559548896	3
2	6659	3876.042718115744	2
2	6662	3877.711163361293	1
2	6665	3878.941693559211	0
2	6669	3879.175550059493	1
2	6670	3880.898518025611	0
2	6677	3883.360831266242	1
2	6678	3884.104401370992	0
2	6685	3886.179955683129	1
2	6687	3886.340364569755	2
2	6689	3886.954538274345	3
2	6690	3887.496417903264	2
2	6694	3888.205923497057	3
2	6695	3889.022948168513	2
2	6698	3890.365560588349	1
2	6703	3892.26446247745	0
2	6710	3894.16334263068	1
2	6711	3895.613723204952	0
2	6715	3895.958862127528	1
2	6718	3897.321118174974	0
2	6725	3899.88666714358	1
2	6726	3900.036529309783	0
2	6745	3909.446764201602	1
2	6746	3910.569902222109	0
2	6775	3920.861920610279	1
2	6776	3922.267864747199	0
2	6875	4002.281269848589	1
2	6876	4002.481863865768	0
2	6895	4011.758589626112	1
2	6896	4012.298640451322	0
2	6900	4013.336604348796	1
2	6901	4014.089846388924	0
2	6937	4029.037549244666	1
2	6939	4030.130190463287	2
2	6940	4030.416033395478	1
2	6943	4031.658273073198	0
2	6949	4033.295430803924	1
2	6950	4033.323220224963	0
2	6957	4035.388387084701	1
2	6958	4036.213405703665	0
2	6964	4036.809975832931	1
2	6965	4037.448446692066	0
2	6969	4037.897717001332	1
2	6970	4039.168792353855	0
2	6982	4042.661596118624	1
2	6983	4044.076591331983	0
2	7025	4063.504297531152	1
2	7028	4064.92853463077	0
2	7035	4066.688864278112	1
2	7037	4067.324044108363	2
2	7039	4067.520015094722	3
2	7040	4068.22659697392	2
2	7043	4070.00116657176	1
2	7046	4071.24396839858	0
2	7050	4071.284038338586	1
2	7051	4072.997651416333	0
2	7060	4074.89018968349	1
2	7062	4075.444332908318	2
2	7063	4075.970347395895	1
2	7066	4077.383336076682	0
2	7070	4078.136694827996	1
2	7071	4078.738389020582	0
2	7075	4080.430189519332	1
2	7076	4080.610534153861	0
2	7110	4104.446178990387	1
2	7111	4104.680696127474	0
2	7120	4107.199674453027	1
2	7121	4107.932740029789	0
2	7130	4109.660186750502	1
2	7131	4110.757984899453	0
2	7135	4111.131336469286	1
2	7136	4112.458645625509	0
2	7140	4113.117829821763	1
2	7143	4114.363440277338	0
2	7150	4116.484102925245	1
2	7152	4116.495217441723	2
2	7153	4117.567552280523	1
2	7157	4118.875631469129	2
2	7158	4119.083894862332	1
2	7161	4120.839341204152	0
2	7180	4128.540165373608	1
2	7181	4129.319790038547	0
2	7202	4140.517070209193	1
2	7203	4140.627767622438	0
2	7207	4140.828663617387	1
2	7208	4142.045070168902	0
2	7230	4149.795965587621	1
2	7231	4150.278700402696	0
2	7250	4158.033857570151	1
2	7251	4159.305101063488	0
2	7255	4159.860270591576	1
2	7258	4160.876897457441	0
2	7265	4162.4805270697	1
2	7266	4163.848275939574	0
2	7280	4169.676945457443	1
2	7281	4170.339476495878	0
2	7305	4185.452352598191	1
2	7306	4186.742154667893	0
2	7315	4191.124087855692	1
2	7316	4191.153258044459	0
2	7325	4195.150701458222	1
2	7326	4195.184911519461	0
2	7335	4201.26707863046	1
2	7336	4201.571451089789	0
2	7345	4207.260995278865	1
2	7346	4208.196414376813	0
2	7350	4209.12348386753	1
2	7351	4210.087837339769	0
2	7355	4210.664040519037	1
2	7356	4211.790218246746	0
2	7367	4213.308872689015	1
2	7368	4215.16769870987	0
2	7377	4217.234265055058	1
2	7379	4217.898923047389	2
2	7380	4218.104701478238	1
2	7386	4218.632768742834	2
2	7387	4219.365679837595	1
2	7391	4220.571169096496	2
2	7392	4221.10689687414	1
2	7397	4222.754437543283	0
2	7404	4224.688173205047	1
2	7405	4225.838316573779	0
2	7412	4227.846943703566	1
2	7415	4229.043100885506	0
2	7421	4230.443896754131	1
2	7422	4230.506471831369	0
2	7432	4234.309409887205	1
2	7435	4234.882378987613	0
2	7485	4277.402866713081	1
2	7486	4277.903722560129	0
2	7490	4278.426310539712	1
2	7491	4279.280614694117	0
2	7510	4288.178364496207	1
2	7511	4288.279992014503	0
2	7515	4289.234749025915	1
2	7516	4289.558032979777	0
2	7520	4290.594037518192	1
2	7523	4291.105422601251	0
2	7527	4292.713029755197	1
2	7528	4293.070508587321	0
2	7540	4296.992178688538	1
2	7541	4297.959909227609	0
2	7555	4304.892360673785	1
2	7557	4304.988604055242	2
2	7558	4306.469333326579	1
2	7563	4308.061663475954	0
2	7570	4309.924537455575	1
2	7571	4310.859851774894	0
2	7607	4357.98707480584	1
2	7608	4358.787635252626	0
2	7615	4360.560702727765	1
2	7616	4362.200124152006	0
2	7630	4374.501877281646	1
2	7631	4375.428524640547	0
2	7660	4394.581220732629	1
2	7661	4395.997008691387	0
2	7670	4397.848360760731	1
2	7671	4399.268772134775	0
2	7675	4400.302915519794	1
2	7676	4400.670411613615	0
2	7690	4413.032956105065	1
2	7691	4413.201187986708	0
2	7740	4474.905817033242	1
2	7741	4476.193768339105	0
2	7745	4477.389825872229	1
2	7746	4478.17761369931	0
2	7750	4479.131973806401	1
2	7751	4480.010129360542	0
2	7755	4480.099286382504	1
2	7757	4480.439450599539	2
2	7758	4481.246627468676	1
2	7764	4482.099721136717	2
2	7765	4482.796756513291	1
2	7768	4484.437070981474	0
2	7772	4484.889479854171	1
2	7773	4486.403896853761	0
2	7777	4486.434442351816	1
2	7778	4488.224334354014	0
2	7782	4488.354245321953	1
2	7783	4489.800389682934	0
2	7790	4491.553819605307	1
2	7791	4493.150721056447	0
2	7795	4493.726655931534	1
2	7796	4494.621925159045	0
2	7800	4495.450405804211	1
2	7803	4495.94351907304	0
2	7807	4495.952281439266	1
2	7809	4496.578522803431	2
2	7810	4497.771244615377	1
2	7814	4498.150318716888	2
2	7816	4499.033176188012	3
2	7817	4499.387659320482	2
2	7821	4500.780881005051	3
2	7822	4501.342783844531	2
2	7826	4501.716000538308	3
2	7828	4502.46945800799	4
2	7829	4503.31664794913	3
2	7833	4503.407557942075	4
2	7834	4505.217481987611	3
2	7838	4506.431707830666	4
2	7839	4506.859938933574	3
2	7842	4508.753253263481	2
2	7846	4509.198576233264	3
2	7847	4510.07059730316	2
2	7850	4511.383062815167	1
2	7853	4513.239565381095	0
2	7857	4514.227904174381	1
2	7858	4514.611398427434	0
2	7890	4530.157913871155	1
2	7891	4531.751468382859	0
2	7895	4532.271156593338	1
2	7896	4533.688155129635	0
2	7900	4533.843681080897	1
2	7903	4535.099083903515	0
2	7940	4553.93881118081	1
2	7941	4555.035995886724	0
2	7960	4564.916481575952	1
2	7961	4565.874620494475	0
2	7965	4567.028326363679	1
2	7967	4567.034131798886	2
2	7968	4567.797716018227	1
2	7971	4569.18246000879	0
2	7990	4581.97951664491	1
2	7991	4582.823726269901	0
2	7995	4584.028291046461	1
2	7996	4584.713099965751	0
2	8005	4590.171736455499	1
2	8006	4590.434768418141	0
2	8010	4591.43086531666	1
2	8012	4591.560886151295	2
2	8013	4591.929512610019	1
2	8016	4593.262708449096	0
2	8020	4593.690054863231	1
2	8022	4593.779359625646	2
2	8023	4594.694492110342	1
2	8026	4596.45014607805	0
2	8030	4597.465266859958	1
2	8031	4597.725308994122	0
2	8035	4599.145427671188	1
2	8036	4599.397572588653	0
2	8040	4600.11876316577	1
2	8041	4600.739028406062	0
2	8065	4629.931640501013	1
2	8066	4631.31200061035	0
2	8102	4670.415312578554	1
2	8103	4671.641515299556	0
2	8120	4679.422451598685	1
2	8121	4680.260864721998	0
2	8125	4681.378739105067	1
2	8126	4681.841693783938	0
2	8130	4681.977157244882	1
2	8132	4682.403089533631	2
2	8133	4683.428521733745	1
2	8138	4685.260483718305	0
2	8142	4686.293787030649	1
2	8144	4686.680671508224	2
2	8145	4687.044392364859	1
2	8149	4687.055473656778	2
2	8150	4688.321522579729	1
2	8154	4688.510223597419	2
2	8155	4690.186612429112	1
2	8158	4692.048058590121	0
2	8205	4744.184407121263	1
2	8206	4745.849130363477	0
2	8270	4798.288522182049	1
2	8271	4799.198532821546	0
2	8305	4821.548574665128	1
2	8306	4823.345077495629	0
2	8315	4825.535937724817	1
2	8316	4826.699928338246	0
2	8322	4828.163557019905	1
2	8323	4828.490605082342	0
2	8327	4828.924637999734	1
2	8328	4829.824117488766	0
2	8340	4836.12974978963	1
2	8341	4836.771959558944	0
2	8360	4847.784967152081	1
2	8361	4848.282177348353	0
2	8375	4854.766981952978	1
2	8376	4856.440381093312	0
2	8390	4861.495763833182	1
2	8391	4862.241393831729	0
2	8395	4862.454661245769	1
2	8396	4864.183989410645	0
2	8400	4865.438327903723	1
2	8401	4866.011409496686	0
2	8405	4866.026943785752	1
2	8406	4867.545301539062	0
2	8420	4873.510133540855	1
2	8421	4874.128810108984	0
2	8525	5025.074869033923	1
2	8526	5026.19698898116	0
2	8535	5030.1386549412	1
2	8536	5031.258216249181	0
2	8540	5032.214468580932	1
2	8541	5033.18995382691	0
2	8545	5034.08520314106	1
2	8546	5034.576751464775	0
2	8550	5035.182022605407	1
2	8551	5036.380517369306	0
2	8565	5053.378367873951	1
2	8566	5055.329510627531	0
2	8575	5058.09438259056	1
2	8576	5059.354957474081	0
2	8580	5059.432535276223	1
2	8582	5061.138693407034	2
2	8583	5061.27129031351	1
2	8587	5062.353838683117	2
2	8588	5062.72971932186	1
2	8591	5064.249518470524	0
2	8595	5065.409577626217	1
2	8596	5065.80577626588	0
2	8620	5100.176362136599	1
2	8621	5101.048638411737	0
2	8630	5103.345401974132	1
2	8631	5104.494173071451	0
2	8645	5115.74099613339	1
2	8646	5115.956325450314	0
2	8650	5116.968072519744	1
2	8652	5117.287728374504	2
2	8653	5117.844582921786	1
2	8657	5118.860861628402	2
2	8659	5119.250823458258	3
2	8660	5119.77756743483	2
2	8664	5120.861969504787	3
2	8665	5121.732629493584	2
2	8669	5123.09094198339	3
2	8670	5123.611794101966	2
2	8674	5123.788130385916	3
2	8675	5124.949368533452	2
2	8679	5125.8890168202	3
2	8680	5126.670229755674	2
2	8683	5127.946536321711	1
2	8687	5129.612649379832	2
2	8688	5129.875476589758	1
2	8692	5130.028633883099	2
2	8693	5131.36145588379	1
2	8696	5133.155582589615	0
2	8700	5133.908933462532	1
2	8701	5134.522008210379	0
2	8710	5137.258770345157	1
2	8711	5138.510384888284	0
2	8725	5152.221992504604	1
2	8726	5153.131487585787	0
2	8735	5155.859601942074	1
2	8737	5156.450844071117	2
2	8738	5157.215907057112	1
2	8742	5158.25803852383	2
2	8743	5158.643350812158	1
2	8746	5160.534359552449	0
2	8750	5160.596226343642	1
2	8752	5161.190118372424	2
2	8753	5162.255332594661	1
2	8757	5163.566764077243	2
2	8758	5163.956953709869	1
2	8762	5165.3048703216	2
2	8763	5165.430815514101	1
2	8767	5165.561880818509	2
2	8768	5167.175971715076	1
2	8771	5168.999933078809	0
2	8775	5169.152297521185	1
2	8776	5170.52827866759	0
2	8780	5170.844853449686	1
2	8782	5171.44315707008	2
2	8783	5171.745021093188	1
2	8787	5172.543593924918	2
2	8788	5173.11223880939	1
2	8791	5174.644346741697	0
2	8795	5175.873013074326	1
2	8797	5175.922894896472	2
2	8798	5176.519254366419	1
2	8804	5177.046713649995	2
2	8805	5177.809662032052	1
2	8808	5179.316430126987	0
2	8814	5180.121930907477	1
2	8815	5180.661427133269	0
2	8819	5180.957571950757	1
2	8822	5182.079353578127	0
2	8826	5183.40541855048	1
2	8827	5183.504258876964	0
[...]
6	27026	16057.637613385389	20.94486886827
6	27094	16079.071520033326	37.042744826956
6	27102	16081.889036245492	5.889874679442
6	27167	16112.459517398961	14.028009613012
6	27177	16118.533288769088	18.151710946009
6	27182	16120.470045827738	27.687164252521
6	27187	16121.980311133376	36.107434135124
6	27192	16123.821531307547	3.052769009301
6	27195	16125.537777735701	3.12986078179
6	27242	16143.839831803856	14.375884134128
6	27280	16164.328309353991	1.672356537916
6	27305	16179.579411387999	3.505897317709
6	27369	16212.411938359903	2.324336734114
6	27389	16220.704508108742	9.610542690035
6	27395	16223.873164603397	3.483888318878
6	27445	16248.733374155251	2.527541497093
6	27540	16281.141490775458	30.836556526334
6	27640	16368.639301001392	4.499471028464
6	27721	16392.95130516629	16.5929488362
6	27799	16417.085045730724	39.393999823736
6	27835	16429.367881044402	15.989612080595
6	27841	16432.135930057458	16.198856047549
6	27848	16433.550774050906	8.78240995209
6	27867	16442.02241456586	28.352529094704
6	27875	16445.904308063398	16.545250167316
6	27892	16452.758319300009	4.856607024559
6	27905	16458.11228199449	30.830604718769
6	27925	16484.101015167265	1.584064378962
6	27967	16508.169716991802	13.057899946037
6	27975	16511.198784868475	6.937520860991
6	28030	16534.649238782003	5.05690749269
6	28040	16548.164466713718	2.448334915244
6	28052	16552.107036591225	1.731912931586
6	28065	16558.287518116706	1.246065570414
6	28070	16563.268290241297	1.37897981368
6	28117	16591.078112135545	4.026751896718
6	28172	16618.891062948891	1.557355262278
6	28197	16626.964907413946	12.403529618673
6	28210	16632.012701160392	1.933388356637
6	28231	16642.607216896505	2.89078653257
6	28261	16652.654192241856	14.918247632032
6	28272	16657.099709486604	20.029926143399
6	28287	16662.130679861098	20.65677842653
6	28392	16700.240954192993	12.669801484632
6	28420	16733.95183232102	1.627627077885
6	28474	16775.800570776074	2.559347896111
6	28489	16779.920123564771	13.990554073392
6	28507	16786.740742794185	11.776246733292
6	28560	16816.673158530819	2.992410885451
6	28620	16875.577899350673	5.47925310369
6	28630	16884.727403649106	12.730143976672
6	28647	16895.214677993873	6.360132433295
6	28720	16920.270653695272	3.388101038919
6	28737	16930.61966745384	1.376041439548
6	28740	16932.335001726783	2.157475638891
6	28912	17092.56042851822	21.378816942616
6	28955	17110.689254031959	25.448982888057
6	29024	17147.56823855343	19.207871702237
6	29047	17155.477601833853	5.181878774519
6	29120	17183.721740772634	12.215960328259
6	29140	17190.927049685881	6.561256823126
6	29165	17239.458958988663	10.122315547018
6	29215	17268.688424619591	1.821349664219
6	29334	17328.84416677047	26.828288488087
6	29360	17338.695922244048	29.474852511841
6	29431	17368.380940651272	19.435283638297
6	29494	17390.486626925391	29.768599361042
6	29540	17414.229317238719	3.510122455817
6	29580	17439.079398256303	1.465122976713
6	29597	17451.30972785654	2.421575402954
6	29632	17502.783849668903	1.253794474155
6	29665	17528.821684700279	1.527353054285
6	29685	17541.439298683628	8.21121962528
6	29727	17568.820762575893	1.817323988862
6	29795	17608.351630355103	9.658774271392
6	29942	17699.240677094121	4.273056596727
6	29950	17708.540069469468	1.351642105542
6	30017	17765.442533747486	1.451846056432
6	30020	17766.750982992917	1.403130659112
6	30045	17789.379836335357	1.635248844326
6	30055	17793.173832485298	2.617396523411
6	30065	17805.567049808681	7.830211292016
6	30090	17826.215323451566	6.554096949622
6	30125	17845.138623437435	5.757526464074
6	30222	17915.390836273893	2.517474889714
6	30347	17979.642973580845	26.226418328698
6	30370	17988.761093207645	46.151455310756
6	30651	18109.460601132222	45.857483273123
6	30662	18113.757961911939	26.740308641115
6	30702	18127.817559770785	43.259623056142
6	30737	18142.134042699576	6.786104633641
6	30754	18158.232798165428	2.242759001438
6	30760	18161.207174853394	3.020792805313
6	30889	18235.732591030419	22.102820319312
6	30917	18249.243840859934	24.429378297482
6	30935	18265.108647331497	2.078037397405
6	30942	18267.351912066423	1.705279611982
6	30947	18269.291805585743	2.433846879095
6	31293	18454.506201384949	32.215446767727
6	31323	18463.634455721254	34.551071690142
6	31366	18478.781319034645	24.580207296332
6	31377	18483.907975710729	62.301856605675
6	31425	18555.956547216755	10.840810900257
6	31460	18591.812666177801	1.229463547282
6	31499	18603.941999736719	3.277253198164
6	31520	18625.277839318214	1.469568053447
6	31535	18639.790713153308	3.530393648273
6	31657	18756.798745935337	11.005518191445
6	31735	18815.594313390998	12.239488587157
6	31762	18847.588064024183	1.633158835582
6	31795	18904.096262097273	1.809381326847
6	31860	19006.654030887297	1.402061625384
6	31940	19073.45564902944	12.023505009168
6	31950	19083.358695294602	4.763515509244
6	31965	19091.361438123823	2.368937966693
6	32002	19106.250486717899	9.940897993269
6	32005	19107.699063148503	9.488912196271
6	32052	19147.558331377362	22.938555385016
6	32110	19172.19413190004	10.180543320277
6	32167	19204.946393853964	1.723316059448
6	32180	19210.918078900972	1.777443178184
6	32202	19225.969325887888	1.362221648358
6	32300	19299.199862745632	1.432083639689
6	32315	19322.714555189151	7.863376773993
6	32442	19375.096390102248	8.243773550494
6	32465	19384.973604048348	3.251645998775
6	32502	19416.073091297299	1.662487020157
6	32591	19453.411295421806	11.292827928539
6	32620	19466.894214544265	7.383657337854
6	32665	19504.014060298586	1.445681171678
6	32675	19511.019261875864	2.321892895871
6	32775	19587.493215544081	10.171078266807
6	32787	19609.338748682526	5.118505559101
6	32847	19654.324145175851	13.839002960742
6	32890	19700.039535100108	1.455963269994
6	32905	19704.696510663613	4.530259681866
6	32922	19717.011828044706	8.243627159043
6	33072	19776.017465570654	19.558260277928
6	33154	19812.806948237446	2.079227300529
6	33164	19816.037306904373	4.229031544897
6	33177	19820.980246132193	10.181668803819
6	33182	19822.554079296021	32.843161198635
6	33245	19860.291810210704	14.277835407154
6	33262	19873.782107285905	4.201201653158
6	33305	19909.306686600923	1.87268538028
6	33367	19958.0216905837	1.690100523643
6	33415	20047.742904201383	1.815702790581
6	33430	20059.797209212841	2.59856377229
6	33512	20086.758596424729	5.105896193135
6	33557	20113.213919181706	1.522206719965
6	33737	20240.351163769595	1.604577365704
6	33822	20372.68470924897	1.983393721348
6	33992	20487.471912649541	1.575014514476
6	34010	20501.997577281317	1.663482916355
6	34070	20580.572752499823	1.390704542957
6	34087	20593.972428829746	1.915035209432
6	34180	20675.474971832299	15.871888802931
6	34232	20700.242621919345	1.818016951904
6	34270	20724.630293710037	1.315497412346
6	34427	20826.184188833151	5.218293499711
6	34450	20846.58757691332	1.978379217908
6	34469	20860.730822053093	1.78610607516
6	34495	20872.863115903217	8.770858557095
6	34527	20893.018726931718	1.734958046675
6	34562	20918.100389732478	1.313029076159
6	34714	21045.611525857875	3.71375556856
6	34740	21066.205621158756	3.714864636277
6	34745	21093.723351567954	1.586018313095
6	34760	21104.792278964182	1.262620037794
6	34777	21114.703110916618	1.310886227898
6	34920	21230.93166332628	11.013584136407
6	35106	21322.303207288989	40.394771859562
6	35132	21331.724144408786	38.321404444414
6	35139	21333.601959309661	18.974242821534
6	35182	21350.706803447013	13.138666655432
6	35207	21358.434263833173	69.911130965685
6	35237	21370.649580413692	1.792437310703
6	35327	21412.497858808056	1.386764331535
6	35387	21452.116637952501	2.407861043294
6	35390	21453.875268158006	6.042684448595
6	35452	21491.399005041684	6.2328966522
6	35717	21598.630606434944	4.506935120703
6	35752	21628.098400150814	1.996185828559
6	35829	21656.651211507834	10.500983143726
6	35944	21751.997191440799	2.818371175085
6	35962	21758.617433302052	11.372879520825
6	35990	21770.082327678638	22.031901943841
6	36094	21857.215219002961	23.339767421374
6	36130	21881.24754119313	1.427971629053
6	36160	21904.058671715503	1.926006839052
6	36195	21940.085864663868	1.680683651753
6	36244	21969.124461185648	11.440475771239
6	36294	21985.032029355218	10.770572526239
6	36350	22005.733432553381	2.425643764419
6	36391	22018.677879389748	2.974092625965
6	36396	22019.930937007442	10.571525319128
6	36406	22023.120448054745	65.578773560286
6	36414	22025.794110462627	5.134324486132
6	36421	22027.557583760096	10.605358935835
6	36439	22034.537941964342	7.126887364649
6	36514	22057.381554895043	37.72965665988
6	36520	22060.952084362469	6.392201406958
6	36535	22079.854803045088	1.337416735291
6	36751	22170.920065566406	6.370454239096
6	36764	22175.938471726955	65.149813575404
6	36789	22186.216609176571	11.446557237314
6	36797	22188.812066558699	2.934623896999
6	36835	22207.285457299837	90.793929925185
6	36877	22242.661486450039	1.58732954599
6	36922	22258.820038033864	5.1355612053
6	37077	22336.997682049218	14.096670167612
6	37114	22361.588768383699	11.401212985757
6	37190	22387.619231171558	31.165488231927
6	37212	22395.572814966597	14.145388035669
6	37305	22452.234660784325	4.776617571248
6	37375	22494.229952198485	10.36763630605
6	37385	22497.862714583966	2.421879958574
6	37392	22518.490040946693	1.940926356241
6	37499	22561.086520225239	31.950505524209
6	37535	22601.897825871833	1.896764704771
6	37575	22618.090191817979	4.609933638918
6	37597	22627.976806762903	24.781032164432
6	37655	22653.736309770385	21.412966459938
6	37714	22678.701888164422	17.397789918826
6	37732	22685.141664554989	16.539064609531
6	37850	22728.499388171847	32.01564723702
6	37880	22748.262646941573	12.909911710481
6	37930	22766.883516777919	8.348601287284
6	37945	22787.036997480754	3.692298847281
6	37991	22802.484849519572	13.225261352999
6	38052	22826.534676866073	28.745079999052
6	38075	22835.731694510291	4.457538192176
6	38092	22864.336068487188	1.866211329028
6	38250	22941.107380037113	4.796361523254
6	38372	22990.229179576205	10.468306188251
6	38416	23001.595468373018	8.923766282014
6	38430	23007.496557926739	30.138930638548
6	38455	23028.485219506278	4.666411893033
6	38495	23051.526600445652	1.910655982792
6	38500	23058.181921464342	1.798412027955
6	38555	23101.034985812998	4.21277273321
6	38720	23196.746481795237	14.093165186445
6	38785	23235.538647631677	7.365196099782
6	38941	23340.606734801419	3.683657950426
6	39094	23412.230027707291	1.576114300037
6	39145	23462.72903411576	1.755147908069
6	39257	23556.648274708699	3.755358229692
6	39305	23579.086976113851	7.353662788916
6	39506	23666.356447351584	14.773177950999
6	39527	23673.76539941621	16.860648188426
6	39600	23728.067358765627	1.792446632311
6	39627	23749.371193985988	2.312528503687
6	39757	23797.864148774321	6.581624010578
6	40052	23934.3716465338	1.368808745034
6	40065	23946.732335902989	1.662403792515
6	40182	24012.542009670274	4.58208401253
6	40195	24017.951871453947	30.732517423909
6	40220	24035.055046115506	3.251369862618
6	40274	24069.656898587902	1.797334018722
6	40280	24073.284363546555	4.826220475797
6	40295	24086.166922898664	4.447697997826
6	40300	24087.794415404353	6.550765965138
6	40425	24141.274472655621	4.123061857675
6	40487	24209.110349278802	3.669183762832
6	40597	24311.694310203471	3.934598163049
6	40695	24347.16929739167	1.236612259597
6	40705	24359.036477346039	1.894311171584
6	40715	24362.691086319614	2.475859265269
6	40824	24405.203168012111	16.525213351647
6	40847	24413.463120761982	38.613988728513
6	40967	24452.90237745913	27.829721280443
6	41005	24472.046521830422	13.687256776935
6	41027	24480.544567244634	3.84693596083
6	41040	24488.009829223987	7.065184156005
6	41230	24578.420197197275	1.923904711194
6	41235	24581.826081227579	1.412784179859
6	41262	24595.111241643512	2.908737510913
6	41367	24633.847418059009	23.71560312032
6	41399	24647.226163548873	1.774058581702
6	41417	24659.148617980129	48.813973184283
6	41475	24697.245291662617	6.681297035077
6	41600	24778.219032356424	1.274191567302
6	41615	24788.46557396451	29.714550288491
6	41635	24821.151646104119	3.291403923611
6	41661	24832.14570228967	2.820280393616
6	41716	24850.397100129976	20.087262616886
6	41732	24857.140405052223	14.39004353933
6	41757	24864.697072359243	39.269727906366
6	41780	24875.655099725015	4.713904330694
6	41965	24968.372749761651	4.722097227241
6	41970	24981.15688494703	1.814335739799
6	42070	25073.167375920948	7.002161837039
6	42107	25093.341453573773	4.066273908063
6	42110	25094.722357131088	11.541758742741
6	42140	25105.746781793283	9.039352178747
6	42160	25131.456784198634	1.214885875769
6	42339	25227.699833135335	2.313881396114
6	42510	25312.337116054876	1.24780280143
6	42520	25326.825995222113	4.329477240526
6	42618	25365.904378404078	13.890658918176
6	42627	25370.066212758218	15.709337638176
6	42630	25371.912183331681	26.134099148512
6	42635	25374.207011889122	15.039271273914
6	42644	25381.280162752993	1.737998176552
6	42715	25426.205569354446	1.897173781507
6	42781	25448.992876496451	9.006280143216
6	42796	25453.839994738164	13.943780552137
6	42802	25456.736481714162	7.274396538451
6	42817	25464.344107923916	2.917112152991
6	42825	25468.518361334526	17.927346312305
6	42840	25483.542874751893	1.733175647445
6	42940	25524.561699458695	1.789826706797
6	43025	25599.600523664249	1.226217300259
6	43045	25627.839466147457	1.87893401105
6	43070	25646.856740431693	1.701155370474
6	43099	25674.910201714141	1.99676554397
6	43130	25686.630097335738	32.838457886911
6	43180	25721.330287741104	3.11898130866
6	43214	25741.006579783821	2.420239592183
6	43222	25743.804097935819	8.698156084679
6	43407	25825.482789551089	13.618851210975
6	43599	25897.217380180052	15.524420817237
6	43716	25938.274398139148	53.112477129846
6	43721	25940.094092569902	77.995227888605
6	43764	25954.806979625699	27.6675946104
6	43779	25960.189567073647	25.67737140439
6	43785	25963.20975823908	8.64943603302
6	43810	25980.672447179409	6.69596501667
6	43829	25999.426047478881	2.865006693084
6	43875	26025.910473842127	10.996480300645
6	43902	26037.026329018485	4.583168990829
6	43937	26049.842548735744	13.539707959875
6	44015	26104.135475964911	3.415788797466
6	44300	26227.772110626946	36.714385321337
6	44325	26254.123364969852	3.83467233578
6	44370	26290.580627958375	9.225165750429
6	44380	26295.132492065893	8.933947642602
6	44385	26310.53042959738	1.800425565988
6	44547	26432.49328701308	3.656029666679
6	44555	26437.244123872326	1.54895167537
6	44574	26448.348481263197	5.39379685726
6	44592	26454.755529716401	8.639299401866
6	44655	26487.09568905194	7.452168500653
6	44707	26504.507183355938	5.514898572543
6	44735	26525.462418924108	8.551699963881
6	44750	26541.510725169412	1.360239892825
6	44755	26546.864532158855	1.276696276665
6	44877	26606.636573633893	6.584990715936
6	44995	26657.669428534571	5.592434689961
6	45005	26668.560889579655	5.019138771747
6	45030	26693.976398222363	8.610531573764
6	45180	26772.139681109132	16.246025368913
6	45190	26785.536174660415	6.42641574187
6	45256	26811.586739114674	16.906987947039
6	45369	26848.297797317619	38.385874159524
6	45392	26856.494322205711	46.050981884531
6	45397	26858.163301108036	29.294689989199
6	45459	26883.184457014504	1.549664365873
6	45490	26897.791952793269	4.238064248102
6	45574	26936.229986746579	4.62739924515
6	45716	26994.857893440169	19.279429180661
6	45750	27007.563156313654	13.571480507285
6	45780	27038.751777505459	1.200495811366
6	45973	27180.108148540593	23.817682256255
6	45981	27183.684062402359	24.797119065109
6	45994	27188.475396563148	17.902967491468
6	46024	27199.704959633981	4.85283630151
6	46057	27212.313650681123	33.837496803012
6	46070	27220.564730370812	11.956890660786
6	46104	27239.122947208352	2.503238203802
6	46125	27252.594973365085	1.936811169609
6	46135	27261.819544002047	2.933792585935
6	46177	27275.623208297079	13.378095814072
6	46260	27353.728903144445	6.619188597389
6	46285	27370.151489409904	15.44290451468
6	46295	27374.901997721206	2.129979069313
6	46342	27401.695418357438	12.42246974098
6	46347	27403.540807645171	2.039331674696
6	46384	27429.129437510957	5.780387750877
6	46400	27435.139614996043	1.761006875168
6	46434	27452.08733461359	1.29306538403
6	46440	27455.244837520732	3.820342573991
6	46504	27524.714247392813	3.660753654427
6	46552	27561.035735109639	5.057620707241
6	46560	27565.025707165922	4.95315939463
6	46599	27586.200590797057	5.205282039829
6	46640	27604.632093353624	5.832737012655
6	46645	27612.242951254655	1.87127406653
6	46657	27626.834049226797	5.28167134309
6	46684	27635.845586055794	4.149723420246
6	46725	27657.250916248041	21.773872697717
6	46790	27695.409224088751	1.902193731442
6	46832	27719.765241648844	1.858166847192
6	46844	27723.324625362065	3.775793192688
6	46860	27736.214994657055	1.844882031716
6	46949	27766.695714465435	11.375780718465
6	46967	27772.278736248704	2.087688019014
6	46982	27778.982389723468	40.84867969291
6	47020	27793.421035293034	11.828782794884
6	47135	27834.794947801533	31.611438385083
6	47175	27867.576510451622	1.764245606773
6	47180	27872.469616667578	1.302867263183
6	47217	27888.676542020189	15.41973090471
6	47250	27905.461138473222	1.225811594725
6	47300	27939.850661528663	5.000770093814
6	47322	27952.650612307658	8.214969205826
6	47345	27971.468033099555	7.631486957961
6	47360	27983.148413793069	1.472578067891
6	47657	28176.780537939643	1.772557230294
6	47720	28224.15785505924	6.84684303484
6	47735	28237.656682563797	6.695017314614
6	47767	28256.17468418753	4.145709591686
6	47820	28317.173358173747	2.499096773511
6	47825	28320.094276362992	1.888526389748
6	47867	28342.27887449443	10.314497860707
6	47887	28350.401945998082	3.694878970106
6	47910	28359.131626777325	6.085781286315
6	47940	28374.703316005205	1.662041001953
6	47967	28388.440547710578	1.3696148744
6	48150	28489.6760356858	17.123987097953
6	48190	28516.218000847478	12.354263768445
6	48402	28619.417011879722	3.305428276911
6	48405	28621.082802940498	19.867123348115
6	48530	28670.445883612984	19.192210756617
6	48629	28705.031112943245	16.461070979749
6	48637	28708.632031097291	23.775429463469
6	48662	28715.947382151431	1.648120308667
6	48690	28745.852407092954	1.685019025765
6	48829	28817.516303013871	14.193054116056
6	48840	28822.332918605069	5.517847315521
6	48852	28827.499043107836	4.787860081692
6	48889	28845.873685585898	1.86662060637
6	48915	28859.749067789075	5.622057446966
6	49002	28927.016912080368	19.199826813008
6	49010	28930.386507666342	14.617567015056
6	49025	28956.462129056396	1.441368837282
6	49030	28958.478102143528	1.871670841426
6	49095	28990.800848257125	9.083984333884
6	49242	29105.437729733696	3.280417600642
6	49245	29107.098033027982	2.48671473535
6	49267	29130.735621631001	9.437892565759
6	49277	29133.839012994846	8.582646735261
6	49315	29162.192762652737	1.245945863426
6	49347	29177.877187938076	6.100772402591
6	49355	29181.611564626145	4.263234207762
6	49485	29268.688360368114	41.447651788728
6	49500	29288.243499561524	1.677997219563
6	49584	29334.457008043854	4.940921965019
6	49602	29343.491442597172	16.591536572559
6	49662	29398.214968053395	15.488859141474
6	49675	29402.938454903524	5.591628181563
6	49732	29489.597487241041	1.729879598506
6	49767	29511.605685984769	23.718682250131
6	49785	29518.103439979308	14.629063659807
6	49794	29520.746425048589	8.192086001834
6	49895	29590.476444852785	1.384327413701
6	49944	29621.241476023119	2.69840631643
6	49974	29638.761855378968	6.015765987994
6	50037	29679.843519770803	6.457016426009
6	50054	29685.490392216744	13.462993709296
6	50062	29688.687325141655	8.798367781375
6	50127	29718.161514611339	1.65371877693
6	50220	29820.345108573671	1.376666017063
6	50230	29828.460657373933	1.692622672953
6	50287	29878.46103959759	2.523280756815
6	50304	29883.534668382446	1.268773239478
6	50342	29896.352813473905	19.0180416318
6	50347	29897.830403062145	5.826695393321
6	50390	29915.609081760818	1.511400563829
6	50420	29930.586691204805	6.956916029533
6	50487	29968.501687881542	24.83828982754
6	50495	29978.836682445934	1.462925799377
6	50500	29986.53304848902	1.37712270394
6	50505	29988.343580848882	1.698063812591

