version 2
run Third_exit_5-11-20191023-00:20:20-5290
attr configname Third_exit_5
attr datetime 20191023-00:20:20
attr experiment Third_exit_5
attr inifile omnetpp.ini
attr iterationvars ""
attr iterationvarsf ""
attr measurement ""
attr network ResponseTimeNetwork
attr processid 5290
attr repetition 11
attr replication #11
attr resultdir results
attr runnumber 11
attr seedset 11
param **.Source.interArrivalTime exponential(6s)
param **.jobPriority bernoulli(0.8)
param **.PS.serviceTimeU1 "uniform(1.2s, 2.0s)"
param **.PS.serviceTimeU2 "uniform(2.4s, 2.8s)"
param **.SS1.serviceTime exponential(1.4s)
param **.SS2.serviceTime exponential(2s)
param **.PS.exitProbability bernoulli(0.5)

vector 0 ResponseTimeNetwork.SS1 queueLength:vector ETV
attr interpolationmode sample-hold
attr title "queue length, vector"
vector 1 ResponseTimeNetwork.SS2 queueLength:vector ETV
attr interpolationmode sample-hold
attr title "queue length, vector"
vector 2 ResponseTimeNetwork.QueueU1 queueLength:vector ETV
attr interpolationmode sample-hold
attr title "queue length, vector"
vector 3 ResponseTimeNetwork.QueueU2 queueLength:vector ETV
attr interpolationmode sample-hold
attr title "queue length, vector"
vector 4 ResponseTimeNetwork.sink lifeTimeU1:vector ETV
attr interpolationmode none
attr title "lifetime of arrived jobs U1, vector"
attr unit s
vector 5 ResponseTimeNetwork.sink lifeTime:vector ETV
attr interpolationmode none
attr title "lifetime of arrived jobs, vector"
attr unit s
vector 6 ResponseTimeNetwork.sink lifeTimeU2:vector ETV
attr interpolationmode none
attr title "lifetime of arrived jobs U2, vector"
attr unit s
0	0	0	0
0	80	48.297955456337	1
0	81	48.855115027807	0
0	232	132.454595589229	1
0	234	132.701049663958	0
0	450	282.320036847987	1
0	451	282.623280042537	0
0	470	290.103073104786	1
0	471	293.416329203188	0
0	500	315.189042596141	1
0	506	317.590766274865	0
0	622	398.09902960411	1
0	624	399.528603767936	0
0	649	406.001481875355	1
0	654	407.534129516731	2
0	657	408.753201362069	3
0	660	410.172395274366	4
0	661	410.552832276949	3
0	666	414.758420434883	2
0	669	415.158588877476	1
0	671	416.690175964939	0
0	730	451.53545867138	1
0	731	451.72810004148	0
0	869	574.78855707672	1
0	877	578.671935647619	2
0	879	578.795534764942	1
0	884	579.955298382136	0
0	1005	658.954871605496	1
0	1006	662.647355645377	0
0	1102	712.687611777057	1
0	1106	715.349114309872	0
0	1344	851.108289153163	1
0	1346	851.809027989326	0
0	1349	852.974722516571	1
0	1351	854.038462969209	0
0	1397	870.923793916442	1
0	1399	871.583807686748	0
0	1430	883.337491967391	1
0	1431	883.79191159876	0
0	1435	885.250922621693	1
0	1436	887.904239959503	0
0	1447	891.069590196255	1
0	1449	891.481965556206	0
0	1452	892.487207804862	1
0	1456	896.376647282823	0
0	1535	960.44737277058	1
0	1536	963.97628511787	0
0	1597	990.076345822085	1
0	1599	990.565751779449	0
0	1602	991.693058593255	1
0	1604	991.747889284819	0
0	1615	996.725008394067	1
0	1616	998.130265344802	0
0	1949	1211.41129001562	1
0	1951	1211.930245352226	0
0	1961	1214.291340484438	1
0	1963	1215.385399487412	0
0	1979	1220.657802976077	1
0	1982	1222.126588594136	2
0	1985	1224.121222243984	3
0	1989	1224.295220231442	2
0	1991	1224.500857878194	1
0	1993	1224.765824178973	0
0	2016	1233.228560586075	1
0	2018	1233.245473436126	0
0	2026	1237.09549280199	1
0	2029	1238.455864868674	2
0	2036	1245.046537429236	1
0	2044	1247.116750309684	0
0	2059	1251.828957627296	1
0	2061	1253.054709692656	0
0	2210	1361.237255076748	1
0	2214	1363.677492925818	0
0	2230	1370.040049445966	1
0	2231	1370.822480704395	0
0	2235	1372.630499294346	1
0	2236	1372.927746286977	0
0	2274	1384.980477665167	1
0	2276	1385.183905373843	0
0	2320	1399.342159673187	1
0	2321	1401.264271184185	0
0	2340	1410.060234427264	1
0	2341	1410.527033033769	0
0	2570	1585.081302971992	1
0	2571	1585.11996807592	0
0	2575	1586.908811855745	1
0	2581	1588.991864589334	0
0	2762	1707.625604192001	1
0	2766	1709.296077567843	0
0	2769	1709.458098972981	1
0	2771	1710.165754749186	0
0	2774	1710.841389656087	1
0	2776	1710.861347275011	0
0	2957	1818.738570707409	1
0	2961	1819.604142000655	0
0	2964	1820.623252236029	1
0	2974	1824.126557844718	0
0	3065	1931.197441508541	1
0	3066	1933.477574974127	0
0	3285	2055.047439899934	1
0	3286	2056.359006685755	0
0	3310	2066.670862594536	1
0	3311	2067.95739066087	0
0	3329	2072.133048276681	1
0	3336	2075.069444815977	0
0	3585	2249.202834793386	1
0	3586	2249.653056206988	0
0	3630	2277.489200123702	1
0	3640	2281.16610678231	2
0	3641	2281.795685882126	1
0	3654	2286.473264511444	0
0	3892	2443.847306203888	1
0	3894	2443.947395974234	0
0	4077	2558.921851425078	1
0	4081	2560.274884758122	0
0	4085	2562.053754075408	1
0	4086	2562.171453537753	0
0	4102	2567.040907174496	1
0	4104	2567.727246016097	0
0	4167	2593.57133796804	1
0	4169	2594.084434466647	0
0	4260	2637.674991545338	1
0	4261	2638.077429575512	0
0	4267	2639.543638449574	1
0	4269	2639.550306664789	0
0	4390	2703.907282694594	1
0	4391	2704.616926662761	0
0	4772	2889.813366329738	1
0	4774	2890.204307297128	0
0	4952	2966.808561387871	1
0	4954	2968.229511779383	0
0	4967	2971.844061899957	1
0	4971	2977.971750347035	0
0	5035	3019.761693778964	1
0	5036	3020.263698351845	0
0	5165	3110.814689314105	1
0	5166	3111.277626567454	0
0	5217	3154.541657853167	1
0	5219	3155.184722632709	0
0	5222	3156.522869328822	1
0	5226	3157.046282976126	0
0	5229	3157.745860865752	1
0	5231	3158.07585377363	0
0	5253	3163.78431901172	1
0	5255	3163.992668600163	0
0	5545	3322.604182716172	1
0	5546	3328.024305559557	0
0	5632	3367.550809703295	1
0	5635	3369.53805811004	2
0	5636	3370.612190467862	1
0	5641	3371.175454465863	0
0	5764	3439.143228516604	1
0	5766	3439.474269572195	0
0	5845	3482.206114843225	1
0	5846	3487.123531095803	0
0	6520	4033.083857989919	1
0	6524	4034.999854590961	0
0	7152	4315.717141835802	1
0	7154	4316.161586620462	0
0	7157	4317.282909229622	1
0	7159	4318.478769146389	0
0	7585	4595.967511142616	1
0	7586	4599.287698669218	0
0	7822	4762.240707075819	1
0	7824	4762.296264469255	0
0	7830	4765.661874775625	1
0	7831	4768.377658600564	0
0	7867	4786.035236582679	1
0	7869	4787.29569353082	0
0	7875	4789.19216301847	1
0	7876	4790.713579834436	0
0	7902	4798.282408871126	1
0	7906	4799.514903066711	0
0	8060	4898.383553224072	1
0	8061	4898.959531597437	0
0	8295	5008.985553726421	1
0	8296	5009.981129316512	0
0	8457	5107.341458636971	1
0	8466	5110.045220283657	0
0	8469	5110.964345957602	1
0	8471	5112.210988404944	0
0	8474	5112.394613250608	1
0	8478	5112.645873064294	0
0	8670	5262.009662011255	1
0	8671	5262.698195834859	0
0	8675	5264.04992770928	1
0	8676	5266.28526921715	0
0	8737	5313.060424338078	1
0	8739	5313.21884768685	0
0	8829	5346.82353412509	1
0	8831	5347.000232839763	0
0	8877	5362.062940289047	1
0	8879	5362.373637200816	0
0	8890	5366.667772152242	1
0	8896	5368.894108924443	0
0	8907	5372.769625283927	1
0	8914	5375.579755435599	0
0	9085	5444.606889906753	1
0	9086	5445.19333770897	0
0	9440	5614.391321538419	1
0	9442	5614.418601260445	0
0	9497	5631.128352421366	1
0	9499	5631.31121990497	0
0	9507	5633.645186439373	1
0	9509	5633.766406014757	0
0	9709	5711.34130391818	1
0	9713	5712.641714804628	0
0	9772	5729.770483924676	1
0	9777	5731.285741505371	0
0	10115	5859.598420354887	1
0	10116	5860.416736934611	0
0	10202	5906.169584019902	1
0	10204	5906.306217042438	0
0	10380	6046.807066098399	1
0	10381	6047.081157017526	0
0	10387	6048.676504131992	1
0	10389	6049.50218125085	0
0	10475	6115.392237815338	1
0	10476	6117.492180323204	0
0	10500	6133.132980517081	1
0	10501	6133.480394094457	0
0	10597	6176.77309992988	1
0	10611	6180.638474209936	0
0	10617	6183.558643009368	1
0	10621	6187.15326987715	0
0	11180	6517.990453375636	1
0	11184	6521.283740616828	0
0	11187	6521.961813977092	1
0	11189	6523.300163590461	0
0	11192	6523.332753383286	1
0	11195	6524.772025530331	2
0	11196	6524.917678508346	1
0	11199	6525.740401370576	0
0	11325	6611.417847755563	1
0	11326	6612.394236733904	0
0	11787	6903.790578687158	1
0	11789	6904.169058498731	0
0	11872	6946.983174682691	1
0	11874	6947.870823215744	0
0	11920	6969.50332569726	1
0	11921	6971.687043381052	0
0	11929	6973.685216361599	1
0	11933	6974.925753166856	0
0	11936	6975.662610375637	1
0	11944	6978.849853525066	2
0	11948	6979.868478931879	1
0	11953	6981.221167811036	0
0	11961	6983.921489963809	1
0	11963	6984.089603507092	0
0	12507	7310.008883855809	1
0	12509	7310.417656582872	0
0	12512	7311.277141852435	1
0	12514	7311.762871331009	0
0	12525	7315.739257270042	1
0	12526	7319.554237061798	0
0	12595	7385.040817142316	1
0	12596	7385.158967112138	0
0	12645	7408.395645448559	1
0	12646	7409.858275235067	0
0	12650	7411.210077813077	1
0	12651	7411.971086957791	0
0	12931	7582.18633875188	1
0	12933	7583.144689801563	0
0	12938	7584.037113014353	1
0	12942	7584.196529350216	0
0	13025	7641.732041715053	1
0	13026	7641.822728490467	0
0	13189	7733.418533947688	1
0	13199	7738.197004084384	0
0	13347	7798.434658572744	1
0	13349	7798.547813917181	0
0	13370	7806.748098158757	1
0	13371	7806.814581018993	0
0	13614	8019.157330281865	1
0	13616	8019.238384280068	0
0	13651	8030.490306633543	1
0	13653	8031.235662799906	0
0	13661	8033.021668995749	1
0	13666	8036.026235027033	0
0	14157	8418.336159987437	1
0	14161	8422.87453139088	0
0	14269	8469.424088730563	1
0	14276	8472.905573813451	0
0	14279	8472.977435194415	1
0	14284	8475.346962066441	0
0	14667	8777.441624332485	1
0	14669	8778.521922863277	0
0	14675	8780.947583370363	1
0	14676	8781.10470349341	0
0	14687	8784.795087195554	1
0	14689	8785.342603385288	0
0	15352	9350.699830677335	1
0	15357	9352.088539893155	2
0	15359	9352.403808336835	1
0	15361	9353.340852216673	0
0	15364	9353.501802718614	1
0	15367	9354.811257338312	2
0	15371	9355.983128420644	1
0	15376	9356.923357571485	0
0	15393	9361.249922212187	1
0	15399	9364.793852329228	2
0	15401	9364.880426833504	1
0	15403	9364.929748877502	0
0	15852	9669.740695089279	1
0	15854	9670.590678209802	0
0	15930	9715.694238730744	1
0	15931	9716.697987985714	0
0	16484	10096.463071990739	1
0	16489	10099.421076458611	0
0	16577	10147.625682287856	1
0	16581	10149.224821578207	0
0	16584	10149.247531031265	1
0	16586	10150.585895069308	0
0	16589	10150.978758290417	1
0	16598	10152.482914260037	2
0	16601	10154.24363549371	3
0	16603	10154.366079033208	2
0	16605	10154.691823568931	1
0	16608	10155.638254567056	2
0	16615	10158.179749324733	1
0	16619	10158.870925435765	0
0	16710	10192.793135308453	1
0	16711	10192.963174048784	0
0	16845	10290.129751420683	1
0	16846	10291.768757178371	0
0	16920	10345.995552408876	1
0	16921	10346.45246068906	0
0	17040	10430.365391212241	1
0	17041	10430.490261641915	0
0	17177	10508.752138653574	1
0	17181	10510.458648340555	0
0	17459	10750.483741067885	1
0	17461	10751.319283053938	0
0	17575	10803.873540383149	1
0	17579	10805.369551059618	0
0	17902	10998.465122813025	1
0	17906	11002.163399839625	0
0	18083	11108.224320739189	1
0	18086	11110.172438287975	2
0	18088	11110.445832876445	1
0	18093	11111.949240303693	0
0	18098	11113.252463581467	1
0	18100	11113.8156543253	0
0	18105	11115.060638238357	1
0	18109	11116.059158988599	0
0	18112	11116.666444551253	1
0	18116	11117.601182896093	0
0	18132	11123.512121737243	1
0	18134	11123.819227428582	0
0	18150	11129.427115810158	1
0	18152	11129.69553619916	0
0	18170	11135.678124635534	1
0	18172	11135.738869148953	0
0	18175	11137.538638239035	1
0	18187	11141.269242930615	0
0	18365	11219.146147023302	1
0	18366	11221.832949655665	0
0	18405	11236.303957689157	1
0	18406	11236.680992561904	0
0	18862	11499.132352033507	1
0	18864	11499.76019134917	0
0	18979	11533.266909555781	1
0	18981	11534.174248036844	0
0	19195	11633.044353894146	1
0	19196	11634.574196040941	0
0	19251	11669.937297207833	1
0	19253	11671.120592017716	0
0	19256	11671.219747483887	1
0	19258	11671.299107314025	0
0	19301	11686.129555412166	1
0	19303	11686.925082476636	0
0	19445	11746.663382352893	1
0	19446	11747.102880260714	0
0	19572	11787.177080767421	1
0	19574	11787.328872997769	0
0	19781	11909.020640109121	1
0	19786	11910.468716579518	0
0	19819	11921.660771742105	1
0	19826	11924.231840109579	0
0	19934	11979.694822056265	1
0	19946	11983.983216089607	0
0	20120	12072.40737560412	1
0	20121	12072.654257852572	0
0	20225	12122.512021905865	1
0	20226	12124.737302097347	0
0	20305	12175.453435918565	1
0	20306	12176.887033211876	0
0	20317	12179.839384362724	1
0	20319	12180.400215520574	0
0	20634	12360.368704902501	1
0	20641	12363.193092905867	0
0	20645	12364.838853130254	1
0	20646	12367.334503902241	0
0	20797	12438.691067335085	1
0	20799	12438.978638832585	0
0	20915	12494.942735494998	1
0	20916	12495.209586912239	0
0	20920	12496.726481358552	1
0	20924	12499.224646423398	0
0	21270	12675.48660882376	1
0	21271	12677.455515838803	0
0	21275	12679.302987903	1
0	21276	12679.583629236709	0
0	21332	12700.544144312102	1
0	21334	12701.537002491621	0
0	21344	12704.372187593388	1
0	21346	12704.880194062569	0
0	21367	12712.564813827718	1
0	21371	12714.628392267858	0
0	21415	12752.397586772475	1
0	21420	12754.84690251652	2
0	21421	12756.641790089629	1
0	21424	12756.91106387266	0
0	21555	12825.578298692794	1
0	21559	12827.087442866845	0
0	21562	12828.142244894972	1
0	21566	12829.595232572653	0
0	21569	12829.900362009725	1
0	21571	12829.939680832078	0
0	21574	12831.145645212738	1
0	21577	12832.81019829957	2
0	21579	12833.016072673673	1
0	21581	12833.40550633925	0
0	21594	12837.347259921191	1
0	21596	12838.243197407244	0
0	21788	12939.581966964231	1
0	21792	12939.916496312373	0
0	21918	12981.246136441156	1
0	21920	12981.250491256592	0
0	21977	12999.084906091428	1
0	21980	13000.319849013983	2
0	21982	13000.725628293511	1
0	21984	13001.247434760563	0
0	22000	13007.004936451165	1
0	22002	13007.43885736484	0
0	22042	13017.479299362262	1
0	22046	13018.362124543897	0
0	22052	13021.229398534333	1
0	22054	13021.285297732351	0
0	22072	13027.657589963524	1
0	22074	13028.74432801067	0
0	22096	13033.763092945776	1
0	22098	13035.003278556645	0
0	22109	13038.739732309132	1
0	22116	13041.523706269382	0
0	22119	13041.834449205435	1
0	22122	13043.738595584667	2
0	22125	13045.119494670889	3
0	22132	13046.945177462265	2
0	22143	13050.571200156099	3
0	22145	13051.328170466527	2
0	22147	13051.901011537198	1
0	22152	13052.702386640369	0
0	22157	13053.455686497575	1
0	22160	13054.673638184255	2
0	22163	13056.165763061566	3
0	22165	13057.097952119717	2
0	22167	13057.172161638586	1
0	22172	13058.921859885328	0
0	22500	13237.57178451436	1
0	22501	13243.1391114783	0
0	22559	13262.04914813743	1
0	22562	13263.981030712771	2
0	22564	13264.318317374011	1
0	22566	13264.516562539685	0
0	22750	13365.091313148413	1
0	22751	13365.470526328818	0
0	22780	13379.181852027017	1
0	22781	13380.962986443688	0
0	22950	13478.376919144483	1
0	22954	13479.562404280705	0
0	22957	13479.886331753208	1
0	22959	13480.716752478827	0
0	23230	13672.481807035459	1
0	23231	13672.815183909872	0
0	23490	13851.842283477428	1
0	23491	13852.528677716263	0
0	23520	13896.533025452286	1
0	23521	13897.003451926494	0
0	23605	13952.368025225659	1
0	23606	13952.664019227054	0
0	23615	13956.156521758091	1
0	23616	13956.444011671991	0
0	23620	13957.694484982231	1
0	23621	13958.025250479615	0
0	23644	13963.513782527707	1
0	23646	13964.573971702709	0
0	23649	13965.010063868425	1
0	23651	13965.458163308039	0
0	23687	13978.480786685496	1
0	23689	13979.479270791039	0
0	24205	14374.237105753124	1
0	24206	14375.473607841885	0
0	24449	14455.177770491462	1
0	24451	14455.846245518097	0
0	24454	14456.587353245687	1
0	24456	14456.645981417912	0
0	24467	14461.085438145843	1
0	24469	14461.196792911	0
0	24587	14534.228021448596	1
0	24589	14534.341420521747	0
0	24727	14601.255721769017	1
0	24731	14604.501213823861	0
0	24940	14687.19754116487	1
0	24941	14687.488781006739	0
0	25100	14847.293466043697	1
0	25101	14848.273958672396	0
0	25105	14850.136108493059	1
0	25106	14851.037151291182	0
0	25150	14866.531214769518	1
0	25151	14867.037336915964	0
0	25155	14868.929360626498	1
0	25156	14869.242830697233	0
0	25179	14875.234964192631	1
0	25181	14875.385516100563	0
0	25852	15270.214032762704	1
0	25854	15271.225401605292	0
0	25860	15273.761919600909	1
0	25864	15274.556741684399	0
0	26230	15439.049102480229	1
0	26234	15440.942789820426	0
0	26252	15446.584546098082	1
0	26256	15448.677560065363	0
0	26347	15521.789878653006	1
0	26356	15523.875749840994	0
0	26780	15826.718362612444	1
0	26781	15827.844683171978	0
0	26847	15846.037671219541	1
0	26852	15848.013453510401	0
0	26867	15852.727300822905	1
0	26871	15852.835669984398	0
0	27295	16078.703499230122	1
0	27296	16078.747748045053	0
0	27572	16225.306595707664	1
0	27576	16225.997880649889	0
0	27910	16431.469645915451	1
0	27911	16432.158869050903	0
0	27915	16433.613649022108	1
0	27916	16433.856486873747	0
0	28310	16749.606073590499	1
0	28311	16754.145162081075	0
0	28440	16815.839900967321	1
0	28449	16819.785101483281	0
0	28454	16820.625413884503	1
0	28456	16820.874518426877	0
0	28464	16824.012150864956	1
0	28466	16825.26471406471	0
0	28517	16848.71255621727	1
0	28520	16850.190234366836	2
0	28521	16851.12936271577	1
0	28524	16851.992129933166	0
0	28532	16853.783714678127	1
0	28535	16855.401778719376	2
0	28536	16855.832048775048	1
0	28539	16856.724634706366	0
0	28555	16862.461919056044	1
0	28556	16862.757427019748	0
0	28855	17071.402310994915	1
0	28856	17073.593167192087	0
0	28867	17076.71426395473	1
0	28869	17077.063252617917	0
0	28880	17081.144553850935	1
0	28881	17081.853468049873	0
0	29067	17188.788603400877	1
0	29069	17189.288825328657	0
0	29155	17251.755032484744	1
0	29156	17251.819586872745	0
0	29350	17402.906413967585	1
0	29351	17403.20059203669	0
0	29360	17406.58085929561	1
0	29361	17408.541010900104	0
0	29497	17501.509431007104	1
0	29499	17501.629621728204	0
0	29516	17505.766369396978	1
0	29520	17506.805745180257	0
0	30032	17789.194231574422	1
0	30034	17789.238503640222	0
0	30071	17800.64889689721	1
0	30073	17801.766746497527	0
0	30076	17802.503480814396	1
0	30078	17802.617624190639	0
0	30222	17879.445291904843	1
0	30224	17879.814643995898	0
0	30235	17884.072819660155	1
0	30236	17884.111587280777	0
0	30305	17921.26215276224	1
0	30306	17924.999169406867	0
0	30465	18017.078612128219	1
0	30466	18017.484363478119	0
0	30470	18018.739754123496	1
0	30471	18020.769708465247	0
0	30661	18151.60490576011	1
0	30671	18156.73342437336	0
0	30682	18160.069687942805	1
0	30686	18161.05244537797	0
0	30839	18254.207044380085	1
0	30843	18255.901325317382	0
0	30846	18256.088474396171	1
0	30848	18256.368691790986	0
0	30859	18260.86482516315	1
0	30861	18262.175755861452	0
0	31120	18451.27899155725	1
0	31121	18451.763189825192	0
0	31257	18588.22303317402	1
0	31261	18590.713613382519	0
0	31330	18631.064706965752	1
0	31331	18632.732725283887	0
0	31387	18662.713251099729	1
0	31389	18662.803573093882	0
0	31404	18667.648655683913	1
0	31406	18668.603139264067	0
0	31409	18669.40983759071	1
0	31411	18669.935716944551	0
0	31455	18684.364825540216	1
0	31456	18684.822489219261	0
0	31590	18817.143454263112	1
0	31591	18817.451820607437	0
0	31595	18818.705571029103	1
0	31596	18820.588734752837	0
0	31762	18933.167960578224	1
0	31766	18934.716768682644	0
0	32089	19165.344377839646	1
0	32092	19166.750644625618	2
0	32094	19166.812553356972	1
0	32097	19168.32099129901	2
0	32099	19169.034400745021	1
0	32102	19170.129392148635	2
0	32105	19171.396389547071	3
0	32109	19172.471062938716	2
0	32116	19174.426405687405	1
0	32121	19176.963625443967	0
0	32507	19448.500424007916	1
0	32510	19450.125495180705	2
0	32511	19452.190004800956	1
0	32514	19452.314880829379	0
0	32675	19567.384415140718	1
0	32679	19568.64488000592	0
0	32875	19683.806628430156	1
0	32876	19685.117180080587	0
0	33170	19861.677236970666	1
0	33171	19862.672637773589	0
0	33182	19866.167997048707	1
0	33189	19868.015663127842	0
0	33229	19880.418238035128	1
0	33234	19882.688528878241	0
0	33239	19884.21462511877	1
0	33241	19884.561110200832	0
0	33244	19885.580381173738	1
0	33246	19886.16134687095	0
0	33249	19887.552649892219	1
0	33251	19887.620208496574	0
0	33389	19947.566293753804	1
0	33406	19953.84903064979	0
0	33614	20049.295675849802	1
0	33617	20050.674942248016	2
0	33619	20051.72685826391	1
0	33631	20054.501603805096	0
0	33774	20130.904539047255	1
0	33776	20132.835057306093	0
0	34007	20287.694627366523	1
0	34009	20288.333114011453	0
0	34155	20410.435127680103	1
0	34156	20414.686286604514	0
0	34160	20415.997886355145	1
0	34166	20421.731648094943	0
0	34169	20421.9679620439	1
0	34171	20422.825363073531	0
0	34174	20423.308177096192	1
0	34179	20425.659088720643	0
0	34182	20425.876070142146	1
0	34184	20427.086434638972	0
0	34187	20427.384517746959	1
0	34191	20429.847657833616	0
0	34215	20440.887390213753	1
0	34216	20442.30054655696	0
0	34310	20492.841970426287	1
0	34314	20494.861350849101	0
0	34355	20510.069718907749	1
0	34356	20511.335239039285	0
0	34360	20513.041319020202	1
0	34361	20513.236817572564	0
0	34392	20523.48312708374	1
0	34396	20526.15541923197	0
0	34415	20533.041848918946	1
0	34416	20534.275633418751	0
0	34565	20598.500001518607	1
0	34566	20599.344635047368	0
0	34750	20758.244900728703	1
0	34754	20759.808534913194	0
0	34895	20892.343164402322	1
0	34896	20892.999092307848	0
0	34902	20894.557276432377	1
0	34905	20896.137580764827	2
0	34906	20899.270932198962	1
0	34911	20900.109364189483	0
0	34940	20910.506956167607	1
0	34941	20911.695098656081	0
0	35044	20972.40160500857	1
0	35046	20972.875925265605	0
0	35049	20974.02643506865	1
0	35059	20979.135518388483	0
0	35065	20980.561633045254	1
0	35066	20980.891276035572	0
0	35074	20982.193931224684	1
0	35077	20983.572136125642	2
0	35081	20986.997793989763	1
0	35086	20987.901765871926	0
0	35215	21043.595762012607	1
0	35221	21046.183145787841	0
0	35578	21190.161358978619	1
0	35581	21191.958338398506	2
0	35586	21194.381352956751	1
0	35594	21198.079705966888	0
0	35710	21261.604602300995	1
0	35711	21262.100870012315	0
0	35717	21264.062335624741	1
0	35719	21265.164037692002	0
0	35755	21277.208730665418	1
0	35756	21277.209857175354	0
0	35954	21412.020097992129	1
0	35959	21413.262335018001	2
0	35961	21413.552963417184	1
0	35964	21414.854069694995	2
0	35971	21416.206760809323	1
0	35973	21416.620605564688	0
0	36005	21429.194953172399	1
0	36006	21431.488233995616	0
0	36150	21534.513371154481	1
0	36151	21534.779942682711	0
0	36274	21591.968703217586	1
0	36279	21593.88806948534	0
0	36282	21595.063037009505	1
0	36286	21595.772278257502	0
0	36347	21623.550206768467	1
0	36349	21624.195966739833	0
0	36385	21639.678331981143	1
0	36386	21640.802214571479	0
0	36730	21864.458826682831	1
0	36736	21865.601956320727	0
0	36955	21977.580374431692	1
0	36958	21979.421499261528	2
0	36960	21980.573964044696	1
0	36965	21981.479821985329	0
0	37017	22001.74642930635	1
0	37019	22002.421667668392	0
0	37272	22126.41495249374	1
0	37274	22127.384909150662	0
0	37317	22140.009901878146	1
0	37319	22140.185636582813	0
0	37425	22184.726009491527	1
0	37426	22185.061643628088	0
0	37575	22295.327525421332	1
0	37576	22297.990945149777	0
0	37625	22320.878381395855	1
0	37626	22320.947507657412	0
0	37745	22384.536155644655	1
0	37746	22385.834560827296	0
0	37840	22455.339924831838	1
0	37841	22456.901607049892	0
0	37845	22458.699169187324	1
0	37850	22461.415663851347	2
0	37851	22461.588353786613	1
0	37854	22462.670465527316	0
0	37867	22465.812685081172	1
0	37869	22465.927238486957	0
0	38022	22596.846702308187	1
0	38024	22596.976071267789	0
0	38032	22599.768123106265	1
0	38034	22600.13681549053	0
0	38065	22612.053803634809	1
0	38066	22612.535876426664	0
0	38344	22758.537973704633	1
0	38346	22760.193389974965	0
0	38365	22767.871106897201	1
0	38366	22769.258368128038	0
0	38529	22842.998104728663	1
0	38536	22847.334449384078	0
0	38559	22853.794986333787	1
0	38561	22854.270161909176	0
0	38965	23181.322817927996	1
0	38966	23181.55507798464	0
0	39284	23405.412278527802	1
0	39286	23405.977292396239	0
0	39289	23407.344455266966	1
0	39291	23407.67123710218	0
0	39294	23409.081523164584	1
0	39296	23409.680360947934	0
0	39487	23529.978935230939	1
0	39490	23531.274234654984	2
0	39493	23533.012904431714	3
0	39495	23533.266733102348	2
0	39497	23534.242298407342	1
0	39500	23534.797797640456	2
0	39502	23535.0794219795	1
0	39512	23537.462567956416	2
0	39514	23538.781174275206	1
0	39519	23538.995916607411	0
0	39534	23544.090816856219	1
0	39536	23545.082068323145	0
0	39810	23692.921409745393	1
0	39811	23694.182817023002	0
0	39937	23745.309073710135	1
0	39941	23748.343751053845	0
0	40317	23988.189634933618	1
0	40319	23988.678667261054	0
0	40322	23989.389994158519	1
0	40324	23989.835670525141	0
0	40365	24020.356981257114	1
0	40371	24022.343503215084	0
0	40379	24024.876555590426	1
0	40381	24025.022200262844	0
0	40406	24033.032841624228	1
0	40411	24034.351042131243	2
0	40413	24034.658565508673	1
0	40415	24035.508666741551	0
0	40418	24035.926634384228	1
0	40420	24036.679208368318	0
0	40439	24043.22000807142	1
0	40441	24044.077446190441	0
0	41110	24427.398549676116	1
0	41114	24429.135577075182	0
0	41117	24429.407701964718	1
0	41119	24430.759797954048	0
0	41404	24551.713330631756	1
0	41406	24552.704103946023	0
0	41419	24556.159186253191	1
0	41421	24556.910859481394	0
0	41469	24571.146606706508	1
0	41473	24572.423347662325	0
0	41522	24588.189916223715	1
0	41524	24588.884125627738	0
0	41630	24642.885598280235	1
0	41631	24642.901793357228	0
0	41741	24688.985160176933	1
0	41746	24691.835031038527	0
0	41827	24719.316850719706	1
0	41831	24720.846125094634	0
0	41861	24729.095822470304	1
0	41864	24730.911706318561	2
0	41868	24731.600332296413	1
0	41873	24733.83495515601	0
0	41883	24735.477769376192	1
0	41885	24735.745397417899	0
0	42117	24857.129119852173	1
0	42119	24857.757873698293	0
0	42122	24858.459996784466	1
0	42124	24859.593159255021	0
0	42127	24860.231513332377	1
0	42130	24862.071792447182	2
0	42131	24866.654492980726	1
0	42136	24869.167813561615	0
0	42244	24903.982727707063	1
0	42246	24904.155513712067	0
0	42249	24905.636588728872	1
0	42253	24906.708545854505	0
0	42256	24906.917283590396	1
0	42258	24907.526746210726	0
0	42432	24967.269965285359	1
0	42434	24968.088118612337	0
0	42620	25106.925825687913	1
0	42621	25107.710297418086	0
0	43307	25653.641167147032	1
0	43309	25654.910198722842	0
0	43374	25676.054444537259	1
0	43376	25677.402775555704	0
0	43379	25677.57347384034	1
0	43381	25677.998457568806	0
0	43462	25718.019939217576	1
0	43465	25719.949459197604	2
0	43466	25721.579512781218	1
0	43469	25721.805889453836	0
0	43717	25880.807232510559	1
0	43719	25882.609360474295	0
0	43754	25891.397464097924	1
0	43756	25891.678339333515	0
0	43759	25892.945976429693	1
0	43762	25894.364707022979	2
0	43764	25895.504695688223	1
0	43769	25896.975620961811	0
0	43932	25961.221000116465	1
0	43935	25962.97510644268	2
0	43936	25964.402964162296	1
0	43942	25966.237992065801	2
0	43944	25967.252796890787	1
0	43946	25967.527075810084	0
0	43949	25968.103501195675	1
0	43951	25969.341219177557	0
0	43954	25969.45910425338	1
0	43956	25969.910474585068	0
0	43967	25974.373790197475	1
0	43969	25974.543589843802	0
0	43972	25976.186198055958	1
0	43976	25981.234116796869	0
0	43982	25982.514267603587	1
0	43984	25982.833712647227	0
0	44160	26079.845608618529	1
0	44161	26083.919754127785	0
0	44170	26087.281015679053	1
0	44171	26088.657386555681	0
0	44205	26126.835739997932	1
0	44216	26136.408710063712	0
0	44445	26265.123693557336	1
0	44446	26265.958654681816	0
0	44547	26355.228406065411	1
0	44549	26355.857146202033	0
0	44825	26587.939018477913	1
0	44829	26597.739641090868	0
0	44842	26601.938353922171	1
0	44845	26603.453992909705	2
0	44846	26604.857241315128	1
0	44849	26606.024830806266	0
0	44910	26640.871198565656	1
0	44911	26641.975083108385	0
0	44935	26650.860563444333	1
0	44936	26652.867876337626	0
0	44980	26692.974662511815	1
0	44981	26693.955536065096	0
0	45025	26707.944085479239	1
0	45029	26710.128595987977	0
0	45192	26804.80152994805	1
0	45194	26806.212421639985	0
0	45197	26806.510268572168	1
0	45199	26807.396718385112	0
0	45430	26920.954819893141	1
0	45431	26922.82176703827	0
0	45617	27047.384356608245	1
0	45619	27047.457024303155	0
0	45625	27050.324781383205	1
0	45626	27051.353704856006	0
0	45635	27054.40481401444	1
0	45636	27054.705023588206	0
0	45642	27056.345957361314	1
0	45644	27056.506838109183	0
0	45759	27144.894899223013	1
0	45763	27145.848909414055	0
0	45766	27146.480043554133	1
0	45770	27147.37131876593	0
0	45776	27149.577608504905	1
0	45778	27149.670984849165	0
0	45781	27151.38105722574	1
0	45783	27152.017545356205	0
0	45862	27193.144198596724	1
0	45864	27193.15916435625	0
0	45975	27243.661850945682	1
0	45976	27244.317085284556	0
0	45997	27250.806456202831	1
0	46000	27252.321347128976	2
0	46005	27255.231008792397	3
0	46011	27258.289488829291	2
0	46025	27259.713807002789	1
0	46027	27260.346701383044	0
0	46102	27288.488259074729	1
0	46104	27289.3642282065	0
0	46330	27461.62306300121	1
0	46331	27466.082315032078	0
0	46592	27650.94079948937	1
0	46594	27651.917353206713	0
0	46688	27717.042423091411	1
0	46693	27718.837277441354	0
0	46802	27777.728143590966	1
0	46806	27779.105282314177	0
0	46867	27801.693561497295	1
0	46869	27802.434240489563	0
0	46992	27894.27472273763	1
0	46994	27895.376129899038	0
0	47010	27900.545997650733	1
0	47011	27902.317638565048	0
0	47015	27903.687382761582	1
0	47016	27904.770974288076	0
0	47180	28004.816449882019	1
0	47191	28008.943538555315	0
0	47270	28052.183257033576	1
0	47271	28053.365333587789	0
0	47275	28055.349669084252	1
0	47276	28056.550565678217	0
0	47545	28232.274884027905	1
0	47546	28232.748257095316	0
0	47720	28357.153217803652	1
0	47721	28358.425733278139	0
0	47765	28379.29623969936	1
0	47770	28381.555127969444	2
0	47771	28383.163798255659	1
0	47774	28383.355428779355	0
0	47779	28384.972091593034	1
0	47781	28385.469322568685	0
0	47955	28463.750018888392	1
0	47956	28467.745801763173	0
0	48010	28513.040516301466	1
0	48011	28514.329527016589	0
0	48377	28688.906741229077	1
0	48379	28690.086687903189	0
0	48387	28691.758864399796	1
0	48389	28691.912694444942	0
0	48465	28750.902155367108	1
0	48466	28752.313468673446	0
0	48712	28963.866296879758	1
0	48714	28964.271040749225	0
0	48786	28992.371478375359	1
0	48789	28994.239883308797	2
0	48791	28994.832814554034	1
0	48795	28995.417107288361	0
0	48813	29000.762482837899	1
0	48818	29002.369380299686	2
0	48822	29002.623012883626	1
0	48824	29003.437194425657	0
0	48827	29003.604388306788	1
0	48829	29004.739410034731	0
0	48847	29010.032418675845	1
0	48853	29012.918864603837	2
0	48855	29013.820199013106	1
0	48857	29014.379674244991	0
0	48860	29014.7561065893	1
0	48862	29015.122586384314	0
0	48884	29024.113002793616	1
0	48889	29025.857558945166	0
0	49019	29081.535931346359	1
0	49024	29083.88045532753	0
0	49034	29085.823796142804	1
0	49038	29086.451406429342	0
0	49067	29097.306553825902	1
0	49069	29097.864337920583	0
0	49130	29115.854328686166	1
0	49132	29117.222554112708	0
0	49135	29117.589751823041	1
0	49137	29118.703748127392	0
0	49352	29208.579197520539	1
0	49354	29208.716418496859	0
0	49775	29424.128370849667	1
0	49776	29426.878294711413	0
0	49990	29512.127924644479	1
0	49992	29512.201687817232	0
0	50533	29793.544901659172	1
0	50535	29794.197102381927	0
0	50546	29797.96932374781	1
0	50553	29799.590210697446	2
0	50555	29799.921219611447	1
0	50560	29802.099569026658	0
1	0	0	0
1	2502	1535.395474493124	1
1	2514	1538.672432145094	0
1	4572	2792.870508937512	1
1	4576	2793.23076794008	0
1	5350	3196.434642241442	1
1	5351	3197.398094258003	0
1	5355	3198.676268483989	1
1	5356	3198.747415055176	0
1	8197	4952.208250888609	1
1	8201	4953.797013426894	0
1	8225	4961.828569000284	1
1	8226	4963.442738114874	0
1	8235	4967.048703833315	1
1	8236	4967.857644086221	0
1	8640	5244.964395621964	1
1	8641	5246.907864661014	0
1	9872	5764.684085935209	1
1	9874	5764.900223000729	0
1	9902	5774.029647352379	1
1	9905	5775.678646914307	2
1	9909	5776.818318605955	1
1	9913	5777.17703795158	0
1	9967	5794.404820280206	1
1	9969	5795.573424760071	0
1	10070	5832.148817829195	1
1	10071	5832.298087309604	0
1	11722	6883.53393203259	1
1	11746	6890.250187196279	0
1	13231	7747.367088375031	1
1	13236	7749.633600353082	0
1	16164	9861.641955237403	1
1	16169	9863.236880216241	0
1	18264	11167.837057865838	1
1	18266	11168.215083026653	0
1	18269	11169.194099944698	1
1	18274	11172.007468777758	0
1	18277	11172.352516269179	1
1	18281	11172.963745728427	0
1	19130	11587.782405520874	1
1	19134	11589.986402028799	0
1	19526	11771.309074832759	1
1	19533	11772.95285045847	0
1	20100	12065.364158352807	1
1	20101	12065.721899960121	0
1	20739	12415.40001908744	1
1	20741	12415.709698560928	0
1	20750	12420.286031190103	1
1	20751	12421.246634925629	0
1	20755	12422.52516554455	1
1	20756	12423.812564839458	0
1	20762	12425.157076060994	1
1	20766	12428.569575548404	0
1	20772	12429.922226008632	1
1	20779	12433.003827112198	0
1	21746	12927.001275273116	1
1	21751	12928.851984325207	0
1	21889	12972.697196265198	1
1	21892	12974.341523096412	2
1	21896	12975.897480422884	1
1	21900	12976.055355595483	0
1	21913	12979.424242761619	1
1	21915	12980.232585977536	0
1	22390	13178.530157757686	1
1	22391	13180.396018121784	0
1	23097	13603.34945385991	1
1	23106	13606.875385932577	0
1	23547	13905.500396578247	1
1	23549	13905.638368390683	0
1	24265	14396.609043410127	1
1	24266	14396.668787954513	0
1	24897	14657.576023798107	1
1	24899	14658.171032692279	0
1	25292	14924.43488603411	1
1	25294	14924.604167801564	0
1	26855	15849.435074019602	1
1	26873	15852.900031924224	0
1	26920	15870.720841134508	1
1	26923	15872.569378885236	2
1	26925	15873.740429185889	1
1	26927	15873.807041011307	0
1	26930	15874.332362808641	1
1	26932	15875.361784336563	0
1	28330	16760.492397498262	1
1	28334	16760.951236574178	0
1	28705	16983.224801412669	1
1	28706	16983.639160820317	0
1	29662	17569.804882122634	1
1	29674	17574.15711408719	0
1	29682	17576.7355496343	1
1	29691	17579.282244646426	0
1	30375	17965.569581250741	1
1	30376	17967.173280728025	0
1	30380	17968.579418437903	1
1	30381	17971.112847270986	0
1	33350	19931.68827011401	1
1	33351	19932.107866155877	0
1	33365	19939.185484036799	1
1	33369	19941.850230146089	0
1	33377	19944.586351175913	1
1	33379	19945.186342349431	0
1	35332	21095.68295858973	1
1	35334	21095.798386688116	0
1	37115	22055.395027207085	1
1	37119	22056.402703240182	0
1	41985	24799.422746249339	1
1	41986	24801.03787409021	0
1	41995	24804.209482135348	1
1	41996	24804.367923684589	0
1	42955	25425.536700501871	1
1	42956	25426.724154980378	0
1	43860	25926.343287422414	1
1	43869	25929.490375377561	0
1	45935	27221.80695177267	1
1	45936	27222.510863096805	0
1	46440	27557.796639598064	1
1	46444	27559.208531093598	0
1	46475	27569.60037167581	1
1	46476	27570.685289237092	0
1	47907	28437.973709875695	1
1	47914	28440.130997016877	0
1	48740	28974.050143537558	1
1	48744	28976.947917786921	0
1	48997	29075.003328734431	1
1	49001	29076.004276181284	0
1	49242	29159.486488210882	1
1	49245	29161.130744035083	2
1	49246	29162.274175451411	1
1	49249	29162.783032882768	0
1	49257	29166.001125481627	1
1	49259	29166.653845327766	0
1	49820	29459.365017418862	1
1	49826	29462.924957214761	0
1	50034	29528.037759252729	1
1	50039	29530.764034223071	0
1	50042	29531.188972776102	1
1	50045	29532.62916570315	2
1	50046	29533.132080482788	1
1	50049	29533.710425464018	0
1	50055	29535.844672181554	1
1	50056	29536.59368908053	0
2	0	0	0
2	5	1.617189857511	1
2	6	2.92445558348	0
2	15	5.350175126214	1
2	16	6.609401827808	0
2	50	35.807722805025	1
2	51	36.516021224304	0
2	70	44.840980007033	1
2	71	44.894253139531	0
2	75	45.367106612864	1
2	76	46.714117629787	0
2	85	49.574188168328	1
2	86	50.552140754543	0
2	120	69.502522800668	1
2	121	69.779932478803	0
2	125	69.882107523143	1
2	126	70.984732225711	0
2	135	74.589799806719	1
2	136	75.219392678658	0
2	185	107.991372959641	1
2	187	108.308822306765	2
2	188	108.516451442868	1
2	191	109.748605934598	0
2	220	128.88145751397	1
2	222	128.998654878336	2
2	223	129.117140386776	1
2	227	129.807536319008	2
2	228	130.815407593698	1
2	231	132.454595589229	0
2	235	132.701049663958	1
2	237	133.342615119032	2
2	238	133.971150232815	1
2	242	134.230374443809	2
2	243	135.910376738907	1
2	247	137.552596009763	2
2	248	137.702709491515	1
2	251	138.922083359548	0
2	265	150.210752353297	1
2	266	151.548251112807	0
2	270	152.354904286019	1
2	271	153.223795055482	0
2	275	153.382562408447	1
2	276	154.878426792915	0
2	280	156.383386202323	1
2	281	156.766688143904	0
2	290	158.949147474303	1
2	292	160.313017754415	2
2	293	160.713539453287	1
2	296	162.264115989458	0
2	325	178.389998404296	1
2	326	178.840120095954	0
2	395	240.207970117199	1
2	396	241.89589780059	0
2	405	244.925262253615	1
2	406	245.523357214712	0
2	415	258.637916052242	1
2	418	260.042546232422	0
2	422	260.457734403233	1
2	423	261.550762254377	0
2	430	263.13969965429	1
2	431	264.275446407315	0
2	510	318.716158104555	1
2	511	318.853470117162	0
2	530	346.942942506604	1
2	531	347.751246981593	0
2	540	350.554199559153	1
2	541	351.530956991802	0
2	545	352.686456276393	1
2	546	353.467371487844	0
2	550	354.399919499751	1
2	551	354.829635473381	0
2	555	355.351310072127	1
2	556	356.268601776886	0
2	585	380.653390914108	1
2	586	381.458192571299	0
2	610	394.044362975416	1
2	611	394.482619994457	0
2	615	394.714550075124	1
2	617	395.761231500837	2
2	618	396.181417277779	1
2	621	398.09902960411	0
2	625	399.528603767936	1
2	626	399.890719244766	0
2	630	399.902333525084	1
2	632	400.313797253488	2
2	633	401.476608119483	1
2	637	401.767761146325	2
2	639	402.668998045335	3
2	640	403.134338284979	2
2	643	404.7537060942	1
2	647	405.482644696775	2
2	648	406.001481875355	1
2	652	406.619626322461	2
2	653	407.534129516731	1
2	656	408.753201362069	0
2	670	415.158588877476	1
2	672	416.690175964939	2
2	673	416.710987628354	1
2	676	418.258181279628	0
2	680	418.68167939287	1
2	682	418.883353945926	2
2	683	420.208184623449	1
2	687	421.467446258399	2
2	688	422.118279891192	1
2	691	424.012284182674	0
2	695	424.487600028457	1
2	697	424.641763609165	2
2	698	425.412578754044	1
2	701	427.126914168625	0
2	725	447.933328055001	1
2	726	449.615346642103	0
2	735	452.716806410025	1
2	736	453.17677024118	0
2	745	464.709745969028	1
2	746	464.990159994138	0
2	755	483.427953252825	1
2	756	484.16446061015	0
2	765	514.464537689048	1
2	766	515.601874117375	0
2	770	515.653738828459	1
2	771	517.055065465168	0
2	777	518.288491330474	1
2	780	518.967469157473	0
2	787	520.640315161787	1
2	788	521.986644103945	0
2	805	547.94948712613	1
2	806	548.208286305127	0
2	815	550.315687473167	1
2	816	551.084709630703	0
2	830	562.797079536282	1
2	831	563.41147734866	0
2	835	563.905899562058	1
2	836	564.835362777007	0
2	840	566.364553865319	1
2	842	566.749823013886	2
2	843	566.799792865743	1
2	847	567.523648471001	2
2	849	568.095613491356	3
2	850	568.330997522255	2
2	854	568.503676964902	3
2	855	569.988488825304	2
2	859	570.685073122877	3
2	860	571.510205675369	2
2	864	573.20301403943	3
2	865	573.365930776564	2
2	868	574.78855707672	1
2	871	576.712770999116	0
2	875	577.913869546231	1
2	876	578.671935647619	0
2	880	578.795534764942	1
2	881	579.874386945632	0
2	885	579.955298382136	1
2	887	580.737940615057	2
2	889	580.797059422758	3
2	890	581.281658247937	2
2	893	582.996044698809	1
2	897	583.8278495834	2
2	898	584.28934250277	1
2	901	585.583000398879	0
2	905	585.71616074035	1
2	907	585.811205900868	2
2	908	587.238635433917	1
2	911	588.548248882485	0
2	915	589.576716774222	1
2	916	589.983274587696	0
2	930	599.769491135761	1
2	931	601.577370139362	0
2	945	605.696770748646	1
2	946	606.92617650319	0
2	950	608.311845726977	1
2	951	608.602366357559	0
2	1000	656.730580875592	1
2	1001	656.980899639214	0
2	1010	663.183416028511	1
2	1011	664.505588005524	0
2	1015	665.638889143686	1
2	1016	666.457579382736	0
2	1030	681.479991792941	1
2	1031	682.211233254467	0
2	1035	682.701724718196	1
2	1036	684.106894287039	0
2	1040	684.551809003373	1
2	1042	685.246237044893	2
2	1043	686.057804662306	1
2	1046	687.350990932007	0
2	1050	688.192810560406	1
2	1051	688.726717955005	0
2	1085	707.652372503812	1
2	1086	708.535990612862	0
2	1092	709.667945419264	1
2	1094	709.887843073003	2
2	1095	710.173685494718	1
2	1098	711.413480169793	0
2	1110	716.644923602387	1
2	1111	717.303015081646	0
2	1135	725.293123718445	1
2	1137	725.538538456312	2
2	1138	725.939807481824	1
2	1143	727.446784475206	0
2	1150	729.861617896687	1
2	1151	731.068549270316	0
2	1160	736.027021450037	1
2	1162	736.608527791524	2
2	1163	736.893392958502	1
2	1167	738.267504526764	2
2	1168	738.685532907407	1
2	1171	740.246243172336	0
2	1175	740.487899688652	1
2	1176	741.724708359513	0
2	1210	768.509834557421	1
2	1211	769.907796972758	0
2	1220	772.377976588468	1
2	1221	773.333895262101	0
2	1230	774.793056834239	1
2	1232	775.147401411135	2
2	1233	776.179859122218	1
2	1237	777.863978060403	2
2	1238	778.14056086927	1
2	1242	779.206822125549	2
2	1243	779.905174239495	1
2	1246	781.298750928001	0
2	1250	781.859714888033	1
2	1251	783.089842390785	0
2	1260	790.460892000912	1
2	1261	790.46383575847	0
2	1270	795.078454230826	1
2	1271	796.554995091673	0
2	1325	846.450540631314	1
2	1328	846.980436875518	0
2	1332	848.272424342712	1
2	1333	848.37840043943	0
2	1337	848.539488336184	1
2	1339	849.234087107337	2
2	1340	849.603089347143	1
2	1343	851.108289153163	0
2	1347	851.809027989326	1
2	1348	852.974722516571	0
2	1352	854.038462969209	1
2	1354	854.64668981278	2
2	1355	854.902852805366	1
2	1358	856.543566997756	0
2	1380	865.222023460359	1
2	1382	866.260853164124	2
2	1383	866.645970283673	1
2	1386	867.944361685627	0
2	1390	869.214984257209	1
2	1391	869.318365958185	0
2	1400	871.583807686748	1
2	1402	871.664826775153	2
2	1403	872.277543390766	1
2	1406	873.570653422028	0
2	1425	881.21836559388	1
2	1426	881.705051705103	0
2	1445	890.571411054406	1
2	1446	891.069590196255	0
2	1450	891.481965556206	1
2	1451	892.487207804862	0
2	1485	916.648579086955	1
2	1486	918.124151361793	0
2	1490	918.328951402679	1
2	1491	920.122580779403	0
2	1540	964.820442006963	1
2	1541	965.376689853338	0
2	1545	965.671144835747	1
2	1546	966.927661413146	0
2	1560	976.163036918571	1
2	1561	976.556943998958	0
2	1565	977.68575021935	1
2	1566	977.934096448223	0
2	1570	978.39687264364	1
2	1571	979.183479790117	0
2	1580	984.158137437536	1
2	1582	984.714842311846	2
2	1583	984.841724743005	1
2	1587	985.189466460234	2
2	1589	985.576496910682	3
2	1590	986.807641719524	2
2	1593	988.168372302186	1
2	1596	990.076345822085	0
2	1600	990.565751779449	1
2	1601	991.693058593255	0
2	1605	991.747889284819	1
2	1606	993.274532305133	0
2	1610	994.825281640487	1
2	1611	995.092126969863	0
2	1620	998.797721744368	1
2	1621	999.423382616352	0
2	1625	1000.667984759101	1
2	1626	1001.227930301737	0
2	1630	1001.38058762955	1
2	1631	1002.697898174573	0
2	1635	1003.078856948762	1
2	1637	1003.124999081725	2
2	1638	1004.054069530715	1
2	1641	1005.826145743144	0
2	1645	1006.63795285728	1
2	1646	1007.175550823783	0
2	1655	1010.889889743835	1
2	1656	1011.332939309935	0
2	1670	1016.320005738192	1
2	1671	1017.16853898274	0
2	1680	1020.344936512057	1
2	1682	1020.461455966844	2
2	1683	1021.62865714086	1
2	1688	1023.4426982793	0
2	1692	1023.531229598447	1
2	1693	1025.032001121805	0
2	1697	1025.10573882899	1
2	1698	1026.609525910296	0
2	1702	1026.728232657579	1
2	1703	1028.164316756741	0
2	1707	1028.802704426089	1
2	1710	1029.865391127483	0
2	1722	1033.175333727331	1
2	1723	1034.45334847057	0
2	1730	1036.712849227285	1
2	1731	1037.350845701338	0
2	1750	1065.302907523027	1
2	1751	1066.136633291591	0
2	1760	1077.854466313343	1
2	1761	1079.584342328022	0
2	1775	1100.209738662171	1
2	1778	1101.315164505388	0
2	1782	1101.349117544527	1
2	1783	1102.557401803392	0
2	1787	1102.843953829816	1
2	1788	1104.002731341193	0
2	1792	1104.922273141803	1
2	1793	1105.902986335638	0
2	1797	1106.819760895325	1
2	1798	1107.314597125235	0
2	1805	1109.650326071283	1
2	1806	1110.871028918097	0
2	1815	1112.64725518819	1
2	1816	1114.44875941153	0
2	1840	1132.117310515199	1
2	1841	1132.699310452415	0
2	1855	1140.411651769289	1
2	1856	1141.458691665808	0
2	1870	1150.790209806281	1
2	1871	1152.036732232824	0
2	1905	1198.200212983332	1
2	1907	1198.40417397727	2
2	1908	1198.525589098563	1
2	1912	1198.773919767235	2
2	1914	1199.870906595576	3
2	1915	1200.40141299848	2
2	1919	1200.478287900407	3
2	1920	1201.82069649898	2
2	1924	1203.164911155187	3
2	1925	1203.280929804188	2
2	1929	1204.579035470649	3
2	1930	1205.109985276093	2
2	1934	1205.39523111468	3
2	1935	1206.893489711699	2
2	1938	1208.31895232216	1
2	1942	1208.515664022869	2
2	1943	1209.540551621434	1
2	1947	1210.576576400216	2
2	1948	1211.41129001562	1
2	1952	1211.930245352226	2
2	1954	1212.666146695078	3
2	1955	1212.674120247704	2
2	1959	1213.745749165631	3
2	1960	1214.291340484438	2
2	1964	1215.385399487412	3
2	1965	1215.886617139695	2
2	1969	1217.171901761033	3
2	1970	1217.179479774987	2
2	1973	1218.974974993398	1
2	1977	1219.625722583182	2
2	1978	1220.657802976077	1
2	1981	1222.126588594136	0
2	1990	1224.295220231442	1
2	1992	1224.500857878194	2
2	1994	1224.765824178973	3
2	1996	1224.777465709345	4
2	1997	1225.993576385255	3
2	2001	1227.824057967587	4
2	2002	1227.9214298047	3
2	2006	1229.442623453298	4
2	2007	1229.874524015734	3
2	2011	1230.576447750825	4
2	2012	1231.486212413559	3
2	2015	1233.228560586075	2
2	2019	1233.245473436126	3
2	2021	1235.007988682665	4
2	2022	1235.164737845014	3
2	2025	1237.09549280199	2
2	2028	1238.455864868674	1
2	2031	1240.171164319653	0
2	2040	1245.937599133363	1
2	2041	1246.408270450264	0
2	2045	1247.116750309684	1
2	2047	1247.716053684498	2
2	2048	1248.12117374777	1
2	2052	1248.626130188711	2
2	2054	1248.91087940943	3
2	2055	1249.945668360173	2
2	2058	1251.828957627296	1
2	2062	1253.054709692656	2
2	2064	1253.418735654276	3
2	2065	1253.719964511275	2
2	2068	1255.37965378645	1
2	2071	1257.264886997036	0
2	2075	1257.560962038245	1
2	2076	1258.775816702797	0
2	2085	1262.339463306363	1
2	2086	1263.233568773248	0
2	2090	1263.82207254289	1
2	2091	1265.22967010589	0
2	2125	1297.081004709865	1
2	2127	1297.552747407857	2
2	2128	1298.77822075187	1
2	2131	1300.073501862201	0
2	2135	1300.466033047997	1
2	2137	1300.66360697989	2
2	2138	1301.537573399942	1
2	2141	1303.097687234532	0
2	2155	1306.821224916961	1
2	2156	1308.702217929801	0
2	2215	1363.677492925818	1
2	2217	1364.386024062869	2
2	2218	1364.670122758263	1
2	2221	1366.438041449302	0
2	2225	1366.982220052166	1
2	2226	1368.217458316834	0
2	2240	1373.759708942801	1
2	2241	1374.73169161341	0
2	2245	1374.783844497108	1
2	2247	1375.538548876979	2
2	2248	1376.339769526374	1
2	2252	1376.348293123398	2
2	2254	1376.919006783933	3
2	2255	1378.28146258517	2
2	2259	1379.827632162529	3
2	2260	1380.044087851037	2
2	2264	1380.570333920643	3
2	2265	1381.257914549474	2
2	2269	1381.786303388309	3
2	2270	1383.17166937067	2
2	2273	1384.980477665167	1
2	2277	1385.183905373843	2
2	2279	1386.448647647642	3
2	2280	1386.821033927973	2
2	2284	1387.662791543776	3
2	2286	1388.257193832726	4
2	2287	1388.35366814005	3
2	2291	1388.433984793489	4
2	2292	1389.643013825256	3
2	2295	1390.92445052861	2
2	2299	1390.965258839913	3
2	2300	1392.248660240683	2
2	2303	1393.819931534852	1
2	2307	1394.131538569614	2
2	2308	1395.027730004477	1
2	2312	1395.195681346072	2
2	2313	1396.252494277048	1
2	2316	1397.720496883976	0
2	2325	1401.518966071516	1
2	2326	1403.093267063738	0
2	2335	1406.975103208236	1
2	2336	1408.590690373069	0
2	2350	1415.530731732372	1
2	2351	1416.290967171744	0
2	2355	1417.041232277532	1
2	2356	1417.942575667717	0
2	2360	1417.976960265301	1
2	2362	1418.957285986431	2
2	2363	1419.680197448761	1
2	2369	1420.806399390375	2
2	2370	1421.003468444117	1
2	2373	1422.851891335019	0
2	2377	1422.973157392565	1
2	2379	1424.132980123161	2
2	2380	1424.344651484967	1
2	2384	1424.905924604405	2
2	2385	1425.833016849973	1
2	2388	1427.300496569753	0
2	2395	1428.996498779029	1
2	2397	1429.548505021082	2
2	2398	1430.236169646412	1
2	2402	1431.493267002162	2
2	2403	1431.655576830834	1
2	2406	1433.070300614379	0
2	2420	1443.844766045078	1
2	2421	1445.680414807874	0
2	2480	1528.669460787124	1
2	2481	1530.182242090434	0
2	2490	1531.449320488019	1
2	2491	1532.60290533974	0
2	2500	1534.660461515677	1
2	2501	1535.395474493124	0
2	2532	1564.625011449598	1
2	2533	1565.257047737029	0
2	2540	1566.87268091245	1
2	2541	1568.220590025198	0
2	2585	1589.654723870748	1
2	2586	1590.781228829653	0
2	2630	1627.471219453374	1
2	2631	1627.723831165228	0
2	2635	1628.186266673003	1
2	2636	1629.468146972563	0
2	2710	1681.910632615742	1
2	2712	1681.95007938962	2
2	2713	1682.883117082565	1
2	2716	1684.82979294028	0
2	2725	1688.537128774737	1
2	2726	1688.684421451755	0
2	2740	1699.820987122841	1
2	2741	1700.88473884782	0
2	2745	1701.466979684585	1
2	2747	1701.931741452908	2
2	2748	1702.179981222769	1
2	2752	1702.389237326085	2
2	2753	1704.135210590644	1
2	2757	1704.643355871666	2
2	2758	1705.9766093204	1
2	2761	1707.625604192001	0
2	2767	1709.296077567843	1
2	2768	1709.458098972981	0
2	2772	1710.165754749186	1
2	2773	1710.841389656087	0
2	2777	1710.861347275011	1
2	2779	1712.146865191355	2
2	2780	1712.42898821125	1
2	2784	1713.136907230685	2
2	2785	1713.817608668862	1
2	2788	1715.089036871513	0
2	2792	1715.167341058329	1
2	2795	1716.74682544863	0
2	2812	1722.760806633976	1
2	2813	1722.83937608136	0
2	2822	1725.588553537506	1
2	2823	1726.339572848772	0
2	2835	1730.04163286583	1
2	2836	1731.403973902194	0
2	2845	1735.295282837624	1
2	2846	1735.910175135532	0
2	2860	1741.500168653942	1
2	2861	1742.284450295477	0
2	2865	1742.354559315801	1
2	2867	1743.845647243905	2
2	2868	1743.90603598906	1
2	2871	1745.360902455917	0
2	2890	1787.752186376803	1
2	2891	1789.272195979774	0
2	2900	1797.053327131008	1
2	2901	1798.501687652314	0
2	2905	1799.476231121578	1
2	2906	1799.877603605458	0
2	2910	1800.014086889575	1
2	2912	1800.069000450845	2
2	2913	1801.589614402757	1
2	2916	1803.251060985842	0
2	2930	1810.307988807809	1
2	2931	1810.501249123296	0
2	2935	1811.046577564745	1
2	2936	1812.321434950201	0
2	2940	1813.760838784054	1
2	2942	1814.083932600669	2
2	2943	1814.259668267077	1
2	2947	1814.63353243674	2
2	2948	1815.475533535635	1
2	2952	1816.128521952878	2
2	2953	1817.015927466495	1
2	2956	1818.738570707409	0
2	2960	1819.360881035349	1
2	2962	1819.604142000655	2
2	2963	1820.623252236029	1
2	2967	1820.961047081532	2
2	2968	1821.943594255788	1
2	2971	1823.624893814815	0
2	2975	1824.126557844718	1
2	2976	1824.953868058068	0
2	2980	1825.427791035498	1
2	2981	1826.299215139007	0
2	2985	1826.327515975579	1
2	2986	1828.274839574961	0
2	3025	1870.802849490918	1
2	3026	1871.592810381514	0
2	3045	1899.480187301342	1
2	3046	1900.486393169432	0
2	3050	1900.537086934391	1
2	3051	1901.886820506423	0
2	3060	1928.278602301683	1
2	3061	1929.764814168135	0
2	3070	1934.4803709777	1
2	3072	1934.925431391108	2
2	3073	1934.994079784132	1
2	3077	1936.192997876973	2
2	3078	1936.792205958455	1
2	3082	1937.24131810147	2
2	3084	1938.162974103341	3
2	3085	1938.478141238182	2
2	3089	1938.626450926233	3
2	3090	1939.861897198684	2
2	3094	1941.607581435107	3
2	3095	1941.807256441391	2
2	3099	1942.354064257649	3
2	3100	1943.579101954787	2
2	3103	1945.127591024167	1
2	3106	1947.027326786905	0
2	3110	1947.100560297901	1
2	3112	1948.597202297186	2
2	3113	1948.887597035817	1
2	3117	1950.373868268943	2
2	3118	1950.553745008274	1
2	3124	1951.482451402761	2
2	3126	1951.916728637723	3
2	3127	1951.996138000316	2
2	3130	1953.509769252329	1
2	3134	1953.974609082838	2
2	3135	1955.108764137155	1
2	3138	1956.336669277041	0
2	3165	1969.89700157033	1
2	3167	1970.066455552712	2
2	3168	1970.089184275983	1
2	3171	1972.041301322883	0
2	3175	1973.295851312035	1
2	3176	1973.66704638858	0
2	3215	1994.027787652524	1
2	3216	1995.178668039136	0
2	3225	1997.809798909936	1
2	3226	1998.43650479331	0
2	3270	2045.232815305066	1
2	3271	2046.748566532985	0
2	3280	2051.913568616081	1
2	3281	2053.129491256816	0
2	3300	2062.887770574491	1
2	3302	2063.216128712373	2
2	3303	2063.88459742154	1
2	3306	2065.216997610694	0
2	3315	2067.966010315492	1
2	3316	2069.215384875315	0
2	3320	2069.902825982063	1
2	3322	2070.032326877128	2
2	3325	2070.92777139664	1
2	3328	2072.133048276681	0
2	3337	2075.069444815977	1
2	3339	2075.67194167246	2
2	3340	2075.750867648686	1
2	3343	2077.323368078734	0
2	3349	2077.456029479317	1
2	3350	2079.21940882698	0
2	3375	2094.053572438145	1
2	3376	2094.437155982098	0
2	3380	2094.623226641186	1
2	3381	2096.322317340961	0
2	3385	2097.054642361987	1
2	3386	2097.932694861843	0
2	3395	2117.118664593374	1
2	3396	2118.134038242663	0
2	3430	2143.369210865602	1
2	3431	2144.301417938208	0
2	3445	2157.887124432611	1
2	3446	2158.928715894335	0
2	3455	2162.566807730979	1
2	3456	2162.94086667713	0
2	3460	2163.62865019885	1
2	3461	2164.830911276901	0
2	3465	2166.823203156845	1
2	3466	2166.830342759417	0
2	3520	2225.686925695181	1
2	3521	2225.743462774101	0
2	3530	2228.712959582201	1
2	3531	2229.510827153765	0
2	3535	2229.89833291458	1
2	3536	2230.725061932609	0
2	3550	2237.237899291481	1
2	3551	2237.658897714641	0
2	3555	2238.217531221302	1
2	3556	2239.254112922352	0
2	3560	2240.882585099571	1
2	3561	2241.219824372743	0
2	3565	2241.682290560285	1
2	3566	2242.92564516845	0
2	3570	2243.31719181772	1
2	3571	2244.454885401156	0
2	3575	2244.771229658725	1
2	3576	2245.96388894948	0
2	3590	2251.296172511892	1
2	3591	2251.570847907165	0
2	3625	2273.988843050331	1
2	3626	2275.686482965317	0
2	3655	2286.473264511444	1
2	3657	2287.726185666619	2
2	3658	2287.739406941652	1
2	3661	2288.962144265517	0
2	3667	2289.543673864306	1
2	3669	2289.670078443006	2
2	3670	2290.511443379901	1
2	3673	2291.880974736631	0
2	3677	2292.097068914257	1
2	3679	2292.491004870608	2
2	3680	2293.776738572128	1
2	3683	2295.160253694847	0
2	3687	2295.442529104215	1
2	3688	2296.525527761139	0
2	3695	2298.974219390107	1
2	3696	2299.320517886065	0
2	3755	2346.60577193658	1
2	3756	2347.837467826333	0
2	3760	2348.291160171824	1
2	3761	2349.055718435709	0
2	3795	2374.898484525484	1
2	3796	2376.535821611577	0
2	3840	2410.558287122668	1
2	3842	2410.677226871942	2
2	3843	2412.342986709386	1
2	3848	2413.884789243474	0
2	3852	2415.137122959963	1
2	3853	2415.289314523845	0
2	3857	2415.768386365398	1
2	3858	2416.772954138874	0
2	3865	2419.169739439332	1
2	3866	2420.115834691508	0
2	3885	2442.061366483876	1
2	3886	2442.486911364318	0
2	3890	2443.581700689774	1
2	3891	2443.847306203888	0
2	3895	2443.947395974234	1
2	3897	2444.081999683953	2
2	3899	2445.115575721919	3
2	3900	2445.822859869757	2
2	3904	2446.737364347263	3
2	3905	2447.649762924434	2
2	3908	2449.340020216489	1
2	3913	2451.318705238262	0
2	3917	2451.832636333548	1
2	3918	2453.317710252898	0
2	3922	2453.317728972747	1
2	3923	2454.668253520178	0
2	3927	2454.790980203921	1
2	3929	2454.977899748939	2
2	3930	2456.651989900368	1
2	3933	2458.552164553526	0
2	3937	2459.773950487994	1
2	3938	2460.474175147201	0
2	3942	2461.406624141987	1
2	3943	2462.416659512791	0
2	3950	2463.859137298774	1
2	3951	2464.934240074689	0
2	3960	2467.229203539709	1
2	3961	2468.887049017487	0
2	4000	2514.338740184813	1
2	4001	2515.374545889608	0
2	4045	2546.523857524801	1
2	4047	2547.373572712135	2
2	4048	2547.705747293487	1
2	4051	2549.042957100823	0
2	4055	2549.10155934712	1
2	4057	2549.833364750815	2
2	4058	2550.31595262102	1
2	4061	2551.640047255523	0
2	4070	2556.460082981706	1
2	4073	2557.553825565633	0
2	4090	2563.540841555722	1
2	4093	2564.102389748169	0
2	4097	2564.82489255577	1
2	4098	2565.694639842546	0
2	4105	2567.727246016097	1
2	4106	2568.888189960791	0
2	4110	2569.18847397586	1
2	4112	2569.915429761938	2
2	4113	2570.247154262064	1
2	4116	2572.095038839018	0
2	4140	2585.204437223934	1
2	4142	2585.592317234558	2
2	4143	2585.835905356262	1
2	4147	2585.910075316013	2
2	4150	2587.083025885116	1
2	4154	2587.819228080564	2
2	4155	2588.574505055625	1
2	4158	2590.51912875038	0
2	4162	2591.188560960565	1
2	4163	2592.354569913003	0
2	4170	2594.084434466647	1
2	4172	2594.483867789753	2
2	4173	2595.450389443267	1
2	4178	2596.729249941859	0
2	4182	2597.916312510208	1
2	4183	2598.051805545877	0
2	4190	2599.911630233527	1
2	4191	2601.26136259653	0
2	4210	2608.493466526824	1
2	4211	2609.945330240288	0
2	4240	2628.589967676634	1
2	4241	2629.74019718267	0
2	4270	2639.550306664789	1
2	4272	2639.925806887172	2
2	4273	2640.936706123168	1
2	4278	2642.709768121543	0
2	4282	2642.760777031617	1
2	4283	2644.113848917598	0
2	4287	2645.009101051306	1
2	4288	2646.103197880128	0
2	4292	2646.441888556419	1
2	4293	2647.956739525722	0
2	4297	2648.7988974551	1
2	4298	2649.463827868217	0
2	4315	2663.433293988111	1
2	4316	2664.692557071082	0
2	4330	2671.506565844005	1
2	4331	2672.906069300943	0
2	4335	2673.579190546085	1
2	4336	2674.315781046697	0
2	4340	2674.413261493308	1
2	4341	2675.898400833518	0
2	4350	2679.964993607051	1
2	4351	2680.400748532603	0
2	4355	2680.923405014889	1
2	4357	2680.973122642273	2
2	4358	2682.0225895004	1
2	4361	2683.857493938285	0
2	4380	2700.252341979058	1
2	4381	2700.738301230387	0
2	4385	2701.944327946114	1
2	4386	2702.133512514622	0
2	4395	2705.127124402372	1
2	4396	2706.549328479308	0
2	4415	2724.598028332833	1
2	4417	2725.490441767165	2
2	4418	2725.818510416762	1
2	4423	2727.684516817384	0
2	4430	2730.938777073288	1
2	4431	2731.102280595952	0
2	4440	2732.744545421882	1
2	4441	2733.698806845822	0
2	4460	2749.675298491211	1
2	4461	2749.922443559053	0
2	4465	2750.844878216838	1
2	4466	2751.458858583527	0
2	4485	2760.642963267879	1
2	4486	2760.719204153083	0
2	4495	2762.427908897673	1
2	4496	2763.88612550528	0
2	4500	2764.731533082713	1
2	4502	2765.627656923776	2
2	4503	2765.85200900038	1
2	4507	2767.0348345706	2
2	4508	2767.470519727592	1
2	4512	2768.617236734765	2
2	4513	2768.830023007032	1
2	4516	2770.315999730427	0
2	4520	2770.395257356093	1
2	4521	2771.701087756764	0
2	4540	2782.04526715106	1
2	4542	2783.087115682275	2
2	4543	2783.171846054656	1
2	4546	2785.135274556627	0
2	4552	2786.110644714697	1
2	4553	2786.71604372633	0
2	4557	2787.92908486011	1
2	4558	2788.193993084853	0
2	4570	2792.241639876977	1
2	4571	2792.870508937512	0
2	4575	2793.075891240203	1
2	4578	2794.143287038591	0
2	4587	2796.165167267121	1
2	4588	2797.488398816224	0
2	4595	2799.520667468287	1
2	4597	2799.671283668696	2
2	4600	2800.901130977433	1
2	4603	2802.327626504537	0
2	4607	2803.392713173962	1
2	4608	2803.762447622765	0
2	4612	2804.106393412412	1
2	4613	2805.716676311541	0
2	4617	2807.198788631882	1
2	4618	2807.609774194631	0
2	4635	2813.551035974134	1
2	4637	2814.151438724105	2
2	4638	2815.381901074913	1
2	4642	2816.940938835159	2
2	4643	2817.235769311119	1
2	4646	2818.548873255741	0
2	4660	2823.998010054255	1
2	4661	2824.607895141939	0
2	4670	2826.294460637736	1
2	4673	2828.113459757936	0
2	4710	2852.749532644545	1
2	4711	2853.056653987913	0
2	4735	2866.112906402958	1
2	4736	2867.27526070493	0
2	4755	2883.440840809596	1
2	4759	2883.966499517952	2
2	4760	2884.75010664712	1
2	4763	2886.373606399887	0
2	4767	2887.711379581669	1
2	4768	2888.100308089026	0
2	4775	2890.204307297128	1
2	4777	2890.229422060588	2
2	4778	2891.308431492255	1
2	4781	2893.269455025972	0
2	4790	2896.426394135132	1
2	4791	2896.432571113737	0
2	4797	2896.950706228923	1
2	4798	2898.137500920774	0
2	4802	2898.179972464762	1
2	4803	2899.857531667197	0
2	4807	2899.865191311044	1
2	4809	2901.167348383544	2
2	4811	2901.282242949242	3
2	4812	2901.627060249889	2
2	4815	2902.957376043567	1
2	4819	2903.03410513977	2
2	4820	2904.407227555731	1
2	4824	2905.315914823954	2
2	4825	2906.135292440349	1
2	4828	2907.488638788903	0
2	4835	2909.059777810944	1
2	4838	2910.761171058447	0
2	4870	2929.432206837141	1
2	4871	2929.640796248269	0
2	4875	2929.663781669361	1
2	4877	2930.566592610791	2
2	4878	2931.558503464264	1
2	4881	2933.324214796563	0
2	4885	2933.505973427825	1
2	4887	2933.774195500315	2
2	4888	2934.704484023181	1
2	4892	2935.262932035998	2
2	4893	2936.117762552974	1
2	4898	2937.501272616376	0
2	4902	2938.496815636408	1
2	4903	2939.477887038913	0
2	4915	2943.713006280339	1
2	4916	2944.875566181946	0
2	4920	2945.001439394098	1
2	4921	2946.383760000612	0
2	4940	2961.977631617298	1
2	4941	2963.363431602168	0
2	4950	2966.017133125298	1
2	4951	2966.808561387871	0
2	4955	2968.229511779383	1
2	4956	2968.594224539798	0
2	4960	2969.632162019141	1
2	4961	2970.080656904754	0
2	4965	2970.975602570314	1
2	4966	2971.844061899957	0
2	4975	2978.82547009659	1
2	4976	2979.718711042868	0
2	4995	2994.633561391715	1
2	4996	2994.659036336933	0
2	5000	2996.254855300511	1
2	5001	2996.35679833172	0
2	5005	2996.587037878679	1
2	5006	2997.641361687613	0
2	5030	3017.570350862983	1
2	5031	3018.053686358365	0
2	5040	3021.048696278689	1
2	5041	3021.503739093333	0
2	5070	3039.713147768522	1
2	5071	3041.180900144773	0
2	5095	3061.034092103447	1
2	5096	3061.15820667236	0
2	5100	3062.055940903075	1
2	5101	3062.654600851563	0
2	5105	3063.148181398901	1
2	5106	3064.21033590096	0
2	5110	3064.397879902194	1
2	5111	3065.988774357503	0
2	5130	3074.733653976917	1
2	5131	3075.06654607767	0
2	5170	3112.400667330153	1
2	5171	3112.576529393093	0
2	5200	3148.058380653863	1
2	5202	3148.879927881039	2
2	5203	3149.337782385241	1
2	5207	3149.447593459921	2
2	5209	3150.539153968757	3
2	5210	3151.189319970499	2
2	5213	3153.081034020375	1
2	5216	3154.541657853167	0
2	5220	3155.184722632709	1
2	5221	3156.522869328822	0
2	5227	3157.046282976126	1
2	5228	3157.745860865752	0
2	5232	3158.07585377363	1
2	5234	3158.080987355949	2
2	5236	3159.467974700479	3
2	5237	3159.496012854057	2
2	5241	3160.008471018601	3
2	5243	3160.677251776631	4
2	5244	3160.775493773671	3
2	5247	3162.179352194855	2
2	5252	3163.78431901172	1
2	5256	3163.992668600163	2
2	5257	3165.132044860201	1
2	5260	3166.586412416624	0
2	5264	3166.600472855107	1
2	5266	3167.750846255232	2
2	5267	3167.969077537062	1
2	5270	3169.223809999826	0
2	5279	3171.346430501135	1
2	5280	3171.927506212185	0
2	5287	3173.919108483011	1
2	5289	3174.824554308358	2
2	5291	3174.969516339441	3
2	5294	3175.321591849851	2
2	5298	3175.52637468326	3
2	5299	3176.616122227388	2
2	5302	3178.561436971317	1
2	5308	3179.555628677529	2
2	5309	3180.041682915988	1
2	5313	3180.811943714144	2
2	5315	3181.244112822484	3
2	5316	3181.372954301762	2
2	5319	3182.911503189097	1
2	5322	3184.234839719201	0
2	5365	3203.331985533408	1
2	5368	3203.871969549324	0
2	5390	3212.01690891486	1
2	5393	3213.606845406352	0
2	5404	3215.808043498714	1
2	5405	3217.150168659074	0
2	5412	3219.369685319909	1
2	5413	3220.018971154747	0
2	5425	3223.420422428403	1
2	5428	3224.796017225226	0
2	5432	3225.552598259978	1
2	5433	3226.643414838565	0
2	5440	3228.931041083305	1
2	5442	3230.007064477256	2
2	5443	3230.109384483797	1
2	5448	3231.570084018213	0
2	5460	3237.60965524845	1
2	5461	3238.532216199045	0
2	5520	3300.4958577045	1
2	5521	3301.712967003288	0
2	5535	3318.791722797776	1
2	5536	3319.285315527293	0
2	5540	3320.529387508768	1
2	5541	3321.271753073755	0
2	5550	3328.181824250669	1
2	5551	3329.408169701371	0
2	5555	3329.502430184318	1
2	5557	3329.654981034592	2
2	5558	3331.011331361767	1
2	5562	3331.309125459585	2
2	5563	3332.677392505903	1
2	5566	3334.202836924467	0
2	5595	3354.211152055679	1
2	5596	3355.313714577717	0
2	5600	3356.330875322661	1
2	5602	3356.574058081755	2
2	5603	3356.990703097445	1
2	5607	3357.294924367339	2
2	5608	3358.820846533489	1
2	5612	3359.121812914793	2
2	5614	3359.26603612621	3
2	5615	3360.680913451028	2
2	5619	3362.05852558856	3
2	5620	3362.222616634791	2
2	5623	3364.096920930122	1
2	5627	3364.788347207685	2
2	5628	3365.570848258299	1
2	5631	3367.550809703295	0
2	5642	3371.175454465863	1
2	5643	3371.928988257607	0
2	5647	3373.380017085564	1
2	5648	3373.388134633747	0
2	5680	3392.803291631794	1
2	5681	3392.860859945189	0
2	5687	3394.422667182532	1
2	5688	3394.69605976842	0
2	5692	3395.779627813134	1
2	5693	3396.572090337012	0
2	5700	3399.594532202825	1
2	5701	3399.805814293731	0
2	5715	3423.292300336613	1
2	5718	3425.008162778862	0
2	5722	3425.684568957946	1
2	5723	3426.569744443394	0
2	5727	3427.585725820092	1
2	5728	3428.201188197046	0
2	5732	3429.898021048293	1
2	5733	3429.932443111635	0
2	5745	3433.636881885304	1
2	5746	3434.99496556564	0
2	5750	3435.656445521134	1
2	5751	3436.468672189738	0
2	5755	3436.583449542124	1
2	5759	3437.429541365006	2
2	5760	3437.687639206338	1
2	5763	3439.143228516604	0
2	5767	3439.474269572195	1
2	5769	3439.859331421781	2
2	5771	3440.792820787126	3
2	5772	3440.794530988733	2
2	5776	3440.909968014167	3
2	5778	3441.570383782473	4
2	5779	3442.551107819068	3
2	5782	3443.814437641266	2
2	5785	3445.206876241478	1
2	5789	3445.550827942102	2
2	5790	3447.055898261505	1
2	5793	3448.376003165792	0
2	5800	3450.120978758117	1
2	5801	3451.106260740075	0
2	5835	3478.148721915348	1
2	5836	3478.577260953938	0
2	5850	3487.65672722278	1
2	5851	3488.38903414917	0
2	5875	3515.641993269507	1
2	5876	3515.819786009457	0
2	5925	3568.589395064274	1
2	5926	3569.495865247378	0
2	5960	3611.109855721399	1
2	5961	3612.231281418585	0
2	6010	3652.246795318286	1
2	6011	3652.565305595883	0
2	6015	3653.155486752593	1
2	6016	3654.381939012968	0
2	6020	3654.798858337117	1
2	6023	3656.013556571343	0
2	6035	3661.143914078292	1
2	6038	3661.99988177981	0
2	6045	3663.858859056869	1
2	6048	3665.428026281891	0
2	6075	3675.382061113039	1
2	6076	3676.210921483686	0
2	6125	3713.979682327839	1
2	6126	3715.55620071025	0
2	6135	3729.200316006567	1
2	6136	3729.275892806549	0
2	6160	3745.975230706206	1
2	6161	3747.732376171416	0
2	6165	3749.211154228734	1
2	6166	3749.6083037104	0
2	6170	3750.20064599133	1
2	6171	3751.406837082422	0
2	6175	3752.497379677614	1
2	6176	3753.154381062976	0
2	6185	3756.988723864509	1
2	6186	3758.537820548113	0
2	6240	3798.373892736546	1
2	6241	3799.603534900263	0
2	6245	3799.852679868837	1
2	6246	3801.144743373483	0
2	6250	3801.605679094101	1
2	6251	3802.691312789596	0
2	6265	3816.953715873548	1
2	6266	3818.111552345173	0
2	6275	3820.320205541296	1
2	6276	3821.272195836881	0
2	6285	3823.509051380713	1
2	6286	3824.527077721411	0
2	6305	3834.955600209135	1
2	6307	3835.463981735645	2
2	6308	3836.679510478836	1
2	6312	3837.114227621773	2
2	6313	3838.619037077923	1
2	6318	3840.451315183912	0
2	6322	3841.367055146478	1
2	6323	3842.086539684024	0
2	6340	3854.120306547297	1
2	6341	3854.577829957313	0
2	6350	3873.300095012385	1
2	6351	3874.779809939032	0
2	6365	3878.492954195604	1
2	6367	3879.420720693324	2
2	6368	3880.0439965642	1
2	6371	3881.325332011556	0
2	6380	3884.259705898393	1
2	6381	3885.076752954808	0
2	6395	3892.313942735079	1
2	6396	3893.033070345456	0
2	6490	3999.295726170321	1
2	6491	4000.830293887587	0
2	6495	4001.730001949257	1
2	6496	4002.439181662271	0
2	6500	4003.752487086873	1
2	6501	4004.368975193905	0
2	6525	4034.999854590961	1
2	6526	4035.779966281353	0
2	6530	4035.923817869728	1
2	6531	4037.082979444785	0
2	6535	4038.064127838856	1
2	6536	4038.495942593364	0
2	6545	4043.059483080294	1
2	6546	4043.674625952206	0
2	6550	4043.699346219483	1
2	6551	4045.13867650967	0
2	6555	4046.189403829807	1
2	6557	4046.405586966428	2
2	6558	4046.423826599344	1
2	6561	4048.395574432089	0
2	6570	4052.364064733354	1
2	6571	4053.487993280319	0
2	6575	4054.982995549253	1
2	6576	4055.452950500985	0
2	6580	4055.748152769491	1
2	6582	4055.772677890634	2
2	6583	4057.095778633942	1
2	6586	4059.005147344721	0
2	6590	4059.520123662906	1
2	6591	4060.692976314304	0
2	6605	4066.117274309191	1
2	6606	4066.796430424289	0
2	6610	4067.380308254693	1
2	6611	4068.094632616514	0
2	6615	4068.637175509327	1
2	6616	4069.925369507322	0
2	6645	4091.042001785495	1
2	6646	4091.805467351485	0
2	6650	4092.174333474322	1
2	6652	4092.322659377168	2
2	6653	4093.463818898197	1
2	6657	4094.559129306837	2
2	6658	4095.287598608579	1
2	6662	4095.835649028856	2
2	6663	4097.178698310401	1
2	6667	4098.536853168265	2
2	6668	4098.976939304691	1
2	6671	4100.957256725762	0
2	6675	4101.428222972186	1
2	6676	4102.293915032182	0
2	6690	4109.334170425257	1
2	6691	4109.988889790166	0
2	6715	4120.100846680238	1
2	6717	4120.309138635068	2
2	6718	4120.618734196321	1
2	6721	4122.492095095226	0
2	6725	4123.184466084455	1
2	6726	4124.004305812092	0
2	6730	4124.440852221516	1
2	6732	4125.173816808869	2
2	6733	4125.383412873679	1
2	6736	4127.20459450514	0
2	6750	4136.309101827878	1
2	6751	4136.583332919321	0
2	6765	4140.397325486671	1
2	6767	4141.287530705659	2
2	6768	4141.746636336232	1
2	6771	4142.955862113769	0
2	6775	4143.496355042924	1
2	6776	4144.192190878215	0
2	6795	4166.559933895024	1
2	6797	4167.077295720166	2
2	6798	4167.181603278131	1
2	6801	4168.491414573141	0
2	6805	4168.616566447387	1
2	6807	4170.043780654849	2
2	6808	4170.045445980229	1
2	6812	4170.526274724474	2
2	6813	4171.551786153675	1
2	6817	4172.21530211284	2
2	6818	4172.794058735021	1
2	6821	4174.266058787428	0
2	6855	4199.295593902592	1
2	6856	4200.535483941039	0
2	6860	4200.553667357088	1
2	6861	4202.379117524786	0
2	6865	4202.565556250358	1
2	6867	4203.327351305097	2
2	6869	4203.491605567211	3
2	6870	4203.839497878006	2
2	6873	4205.403487157984	1
2	6877	4205.941751791383	2
2	6878	4206.698849617666	1
2	6881	4208.455204833089	0
2	6885	4208.907034287551	1
2	6886	4210.091410025931	0
2	6890	4210.481373409549	1
2	6893	4211.600625579222	0
2	6897	4211.680020363962	1
2	6898	4213.171452225163	0
2	6902	4213.289973528203	1
2	6903	4214.581456325925	0
2	6907	4214.772270021936	1
2	6909	4215.223451081784	2
2	6910	4215.863741160161	1
2	6913	4217.52303989993	0
2	6920	4220.491891631344	1
2	6922	4220.536226591467	2
2	6923	4221.047433483205	1
2	6926	4222.352055544756	0
2	6935	4223.786315305678	1
2	6936	4225.412362269848	0
2	6945	4228.401180224584	1
2	6946	4228.860143116839	0
2	6970	4246.586782743183	1
2	6972	4247.709402321226	2
2	6973	4248.324795215741	1
2	6979	4249.190004141373	2
2	6980	4249.608987791069	1
2	6984	4249.896146561417	2
2	6985	4251.277694880381	1
2	6989	4251.690345405029	2
2	6991	4252.44620046827	3
2	6992	4252.750431638188	2
2	6996	4253.122460919998	3
2	6997	4254.607957886881	2
2	7000	4255.813655629731	1
2	7003	4257.249323120876	0
2	7010	4259.624001401879	1
2	7011	4260.242967237322	0
2	7045	4272.216192017128	1
2	7047	4272.257255190524	2
2	7048	4272.501579937689	1
2	7053	4274.209439652577	0
2	7065	4283.116251209112	1
2	7068	4284.823179502263	0
2	7072	4285.019608661467	1
2	7073	4286.446272859386	0
2	7080	4288.324361610875	1
2	7081	4289.787723972126	0
2	7100	4297.845724400728	1
2	7101	4299.141729554224	0
2	7120	4306.042649825146	1
2	7122	4306.274304560172	2
2	7123	4306.97157235261	1
2	7126	4308.434678367376	0
2	7135	4310.710843474835	1
2	7137	4311.692661905615	2
2	7138	4311.735755104981	1
2	7142	4312.544350646262	2
2	7143	4313.022126116082	1
2	7147	4314.17050259199	2
2	7148	4314.371218885519	1
2	7151	4315.717141835802	0
2	7155	4316.161586620462	1
2	7156	4317.282909229622	0
2	7160	4318.478769146389	1
2	7161	4318.737332153358	0
2	7185	4335.023991333143	1
2	7186	4336.037435457649	0
2	7190	4336.631014381329	1
2	7191	4337.85834154168	0
2	7215	4364.147422455612	1
2	7216	4364.236276827189	0
2	7235	4372.042014928152	1
2	7237	4372.535943632375	2
2	7238	4373.026292657624	1
2	7242	4374.476422347467	2
2	7244	4374.654431396315	3
2	7245	4374.89020138565	2
2	7248	4376.423532481077	1
2	7251	4377.680064395214	0
2	7255	4377.744807584988	1
2	7256	4378.933436050969	0
2	7285	4413.047959922188	1
2	7287	4413.078546441191	2
2	7288	4413.215755554421	1
2	7292	4414.258795487811	2
2	7293	4414.683309967948	1
2	7297	4414.81391458098	2
2	7300	4416.379959586581	1
2	7304	4416.914102570783	2
2	7306	4416.98107329996	3
2	7308	4417.057565950753	4
2	7309	4417.969191187752	3
2	7312	4419.715547222403	2
2	7316	4420.0897432557	3
2	7318	4420.889128912456	4
2	7319	4421.255141997841	3
2	7322	4423.107527090554	2
2	7325	4424.787326125373	1
2	7329	4425.46298852192	2
2	7331	4425.535405653628	3
2	7332	4426.060465285313	2
2	7335	4427.952632220593	1
2	7338	4429.407555790004	0
2	7345	4430.965898859378	1
2	7346	4432.212293165867	0
2	7355	4439.20004416171	1
2	7356	4440.371573680326	0
2	7360	4440.666236381473	1
2	7364	4441.802104451089	2
2	7365	4442.103611017637	1
2	7368	4443.711544716418	0
2	7372	4444.286347069307	1
2	7374	4445.142660509007	2
2	7375	4445.556350228995	1
2	7379	4446.58408478072	2
2	7380	4447.194179146796	1
2	7383	4449.148328140437	0
2	7410	4475.336313561722	1
2	7413	4477.099360481448	0
2	7417	4478.642844166954	1
2	7418	4479.037269523538	0
2	7430	4483.077920350983	1
2	7431	4484.584250723231	0
2	7470	4505.576578070573	1
2	7471	4506.798304788021	0
2	7490	4515.7197990737	1
2	7492	4515.814358426116	2
2	7495	4517.210506134582	1
2	7498	4519.013255650466	0
2	7540	4552.420638592664	1
2	7541	4553.59043053052	0
2	7580	4594.101974586258	1
2	7581	4594.750809313741	0
2	7590	4599.447816355092	1
2	7593	4601.085239688352	0
2	7600	4603.091884331589	1
2	7601	4604.052352053903	0
2	7700	4702.923082398789	1
2	7701	4703.185542089103	0
2	7710	4706.367420459038	1
2	7711	4706.681675965881	0
2	7740	4722.417231850985	1
2	7741	4722.902089299632	0
2	7745	4723.900249730157	1
2	7746	4724.136105021832	0
2	7750	4724.776364112126	1
2	7751	4725.760108686236	0
2	7795	4754.512854233289	1
2	7796	4754.743457199298	0
2	7800	4755.637190281164	1
2	7801	4756.032884771973	0
2	7805	4757.65911008203	1
2	7807	4757.678537187459	2
2	7808	4757.779736714102	1
2	7812	4758.31548957439	2
2	7813	4759.451233847662	1
2	7817	4759.523825595652	2
2	7818	4760.975603390149	1
2	7821	4762.240707075819	0
2	7825	4762.296264469255	1
2	7826	4763.987827069163	0
2	7835	4769.128257676108	1
2	7836	4769.925247510354	0
2	7850	4780.294519674255	1
2	7851	4780.626411202696	0
2	7855	4782.195706780287	1
2	7856	4782.407883541991	0
2	7860	4782.626437276258	1
2	7863	4784.320381572989	0
2	7870	4787.29569353082	1
2	7871	4787.330150747632	0
2	7880	4791.244100612743	1
2	7881	4792.291268948649	0
2	7885	4793.798948377669	1
2	7886	4793.968767655452	0
2	7890	4794.483593466556	1
2	7891	4795.567056025562	0
2	7895	4795.988555344584	1
2	7896	4796.877052916211	0
2	7900	4797.263576465659	1
2	7901	4798.282408871126	0
2	7905	4798.994421106241	1
2	7907	4799.514903066711	2
2	7908	4799.623307726343	1
2	7912	4799.85401244666	2
2	7913	4801.621206531671	1
2	7917	4801.713797331285	2
2	7918	4803.494071109963	1
2	7921	4804.960500931179	0
2	7925	4805.074834360536	1
2	7928	4806.711266865207	0
2	7935	4808.504846818687	1
2	7937	4809.340856294364	2
2	7938	4809.347764722443	1
2	7941	4811.202970086037	0
2	7945	4811.54264806221	1
2	7946	4812.579730175248	0
2	7950	4812.722078629068	1
2	7951	4813.787237244657	0
2	7980	4824.843307375441	1
2	7982	4825.181711043359	2
2	7983	4825.836389368782	1
2	7987	4826.084937712818	2
2	7990	4827.080654370422	1
2	7993	4828.592759121219	0
2	8000	4830.748721325337	1
2	8001	4832.282497972446	0
2	8010	4837.221502182166	1
2	8011	4837.996551750313	0
2	8055	4895.449683812524	1
2	8056	4896.481080837004	0
2	8065	4899.474726291252	1
2	8066	4900.809264934452	0
2	8080	4908.987712422015	1
2	8081	4910.947920584373	0
2	8100	4917.450747980164	1
2	8101	4918.091615178863	0
2	8105	4918.252543611251	1
2	8106	4919.981278346347	0
2	8110	4920.687131728738	1
2	8111	4921.634798159691	0
2	8115	4922.513215021428	1
2	8116	4923.573868104125	0
2	8145	4933.982694263693	1
2	8146	4934.100514972303	0
2	8155	4935.593559482214	1
2	8156	4937.051107527595	0
2	8170	4941.01876584443	1
2	8171	4942.274591177724	0
2	8195	4951.105096859461	1
2	8196	4952.208250888609	0
2	8207	4954.832747322743	1
2	8208	4955.204719490694	0
2	8255	4976.534219723862	1
2	8258	4977.599170479513	0
2	8290	5006.838357007527	1
2	8291	5007.290895380692	0
2	8300	5010.826569206492	1
2	8301	5011.183407029408	0
2	8320	5025.364864680152	1
2	8321	5026.658270344539	0
2	8330	5029.206968730858	1
2	8331	5030.101398614088	0
2	8350	5058.605896164638	1
2	8351	5059.015440943908	0
2	8365	5068.290681119136	1
2	8366	5068.432539160925	0
2	8370	5069.235661452763	1
2	8371	5070.268995544503	0
2	8375	5071.512186218167	1
2	8376	5071.863037260252	0
2	8400	5082.86364714484	1
2	8401	5084.249892214192	0
2	8425	5096.862783566487	1
2	8426	5097.503727746394	0
2	8430	5098.619194021099	1
2	8431	5099.141898199928	0
2	8440	5101.013223108264	1
2	8442	5102.040457113656	2
2	8443	5102.248428090551	1
2	8447	5103.438874894285	2
2	8448	5103.723063978815	1
2	8452	5103.898042083223	2
2	8453	5105.521172930935	1
2	8456	5107.341458636971	0
2	8460	5108.229358539562	1
2	8463	5109.181308260264	0
2	8467	5110.045220283657	1
2	8468	5110.964345957602	0
2	8472	5112.210988404944	1
2	8473	5112.394613250608	0
2	8477	5112.621849241975	1
2	8479	5112.645873064294	2
2	8481	5112.889540456414	3
2	8482	5113.878041939328	2
2	8485	5115.732369273047	1
2	8489	5115.855966542558	2
2	8490	5117.466974366347	1
2	8493	5119.270789533185	0
2	8500	5121.919212970238	1
2	8501	5122.820360624308	0
2	8515	5157.238695738336	1
2	8516	5157.734533296804	0
2	8580	5208.980848713302	1
2	8581	5210.783473106092	0
2	8585	5211.108268311363	1
2	8587	5211.281534828759	2
2	8588	5212.686913817739	1
2	8591	5214.628718036031	0
2	8595	5214.875115588942	1
2	8596	5216.360490665575	0
2	8605	5221.260010893255	1
2	8606	5221.999854147305	0
2	8610	5222.778957006212	1
2	8611	5223.334271461201	0
2	8620	5226.627385917844	1
2	8621	5227.615357232343	0
2	8650	5249.480657458539	1
2	8651	5251.207205322161	0
2	8665	5258.863165331514	1
2	8666	5260.052315139573	0
2	8700	5279.841480426739	1
2	8701	5280.026142078447	0
2	8725	5309.073862678843	1
2	8726	5309.70460250078	0
2	8730	5309.863316551781	1
2	8731	5311.407833684033	0
2	8735	5312.913978683731	1
2	8736	5313.060424338078	0
2	8740	5313.21884768685	1
2	8742	5313.455886686713	2
2	8743	5314.977454904823	1
2	8746	5316.23854967708	0
2	8755	5318.834704930791	1
2	8756	5319.600135729679	0
2	8760	5320.149867347706	1
2	8761	5321.000728909143	0
2	8765	5321.234396197603	1
2	8766	5322.396459869885	0
2	8770	5323.34522735434	1
2	8772	5323.409351571802	2
2	8774	5323.643884208239	3
2	8775	5323.929807875523	2
2	8778	5325.753478445144	1
2	8781	5327.593201041998	0
2	8785	5327.881998769096	1
2	8786	5329.326447830939	0
2	8790	5329.645376297853	1
2	8791	5330.970320136317	0
2	8810	5341.124166303417	1
2	8811	5341.55103069339	0
2	8820	5343.791954746859	1
2	8822	5344.279628094651	2
2	8823	5345.27352369465	1
2	8828	5346.82353412509	0
2	8832	5347.000232839763	1
2	8834	5347.328033785192	2
2	8835	5348.041351694614	1
2	8839	5348.175846785044	2
2	8841	5349.247189936567	3
2	8842	5349.578641962074	2
2	8846	5349.737312849584	3
2	8847	5351.011791191623	2
2	8850	5352.607835827582	1
2	8853	5354.505710491538	0
2	8860	5356.960952969626	1
2	8861	5357.416848908178	0
2	8870	5359.36305819189	1
2	8871	5360.573069365662	0
2	8880	5362.373637200816	1
2	8881	5363.693866906468	0
2	8885	5363.923144590464	1
2	8886	5365.398348322105	0
2	8895	5367.835056885579	1
2	8897	5368.894108924443	2
2	8898	5369.006847746819	1
2	8902	5369.613458551111	2
2	8903	5370.806664084047	1
2	8906	5372.769625283927	0
2	8910	5372.91413409258	1
2	8911	5374.598837805875	0
2	8915	5375.579755435599	1
2	8917	5375.824324118346	2
2	8919	5376.012540964629	3
2	8920	5376.190026146509	2
2	8924	5376.512569497893	3
2	8926	5376.697738240852	4
2	8929	5377.9258174745	3
2	8933	5377.958380450322	4
2	8935	5378.023276813743	5
2	8936	5379.614236874283	4
2	8939	5381.319988324457	3
2	8943	5382.196483370433	4
2	8944	5382.556582987831	3
2	8948	5383.30965383577	4
2	8949	5383.825452208669	3
2	8953	5384.257177025155	4
2	8954	5385.532484278792	3
2	8957	5387.071326107682	2
2	8960	5388.435949742385	1
2	8963	5390.396415200979	0
2	8970	5392.801701288707	1
2	8971	5394.132307825387	0
2	8975	5394.225564128883	1
2	8977	5395.336905959286	2
2	8978	5395.850287108273	1
2	8984	5396.342041673658	2
2	8986	5397.385027922292	3
2	8987	5397.65515146643	2
2	8990	5399.468584736028	1
2	8993	5400.917095303686	0
2	8997	5401.255922720292	1
2	8998	5402.508923778647	0
2	9010	5408.118505048188	1
2	9011	5409.265944496883	0
2	9027	5418.347374900852	1
2	9028	5418.550097680612	0
2	9040	5424.143698994984	1
2	9043	5424.491146169433	0
2	9055	5428.785154247323	1
2	9056	5428.922851937467	0
2	9090	5445.682904718655	1
2	9092	5446.197511310424	2
2	9093	5447.14058601584	1
2	9097	5447.256445854519	2
2	9098	5448.696676701193	1
2	9102	5448.932686660075	2
2	9104	5449.919768101109	3
2	9105	5450.339028455203	2
2	9109	5450.394380528115	3
2	9112	5451.60127303533	2
2	9115	5453.375713288856	1
2	9119	5453.388262024617	2
2	9120	5455.30484912235	1
2	9124	5456.607646942546	2
2	9126	5456.844252020388	3
2	9127	5457.001478361783	2
2	9131	5457.604645761496	3
2	9132	5458.975899959241	2
2	9135	5460.684085285922	1
2	9138	5461.911964975928	0
2	9142	5462.982565873098	1
2	9143	5463.350666585264	0
2	9160	5469.791784789642	1
2	9161	5470.426027299137	0
2	9180	5476.79135595877	1
2	9181	5477.628130085278	0
2	9235	5527.982455086562	1
2	9236	5529.210192449167	0
2	9240	5529.316894039707	1
2	9241	5530.91190414723	0
[...]
6	29245	17323.643878723169	6.115456305637
6	29250	17327.648832081028	1.412297469191
6	29275	17341.207056297176	5.217306100818
6	29305	17359.779359241291	1.287755923159
6	29330	17377.617629466774	4.977672412517
6	29395	17443.364656721258	8.195667879686
6	29405	17470.30589202803	5.35377949109
6	29602	17534.496324013891	43.51039653262
6	29625	17546.449796144423	1.303003382869
6	29637	17549.98548844077	2.310716888413
6	29700	17583.267592076749	16.909082326605
6	29720	17599.129372710825	35.5658405412
6	29737	17606.099250521897	5.877264517536
6	29740	17608.04388659039	2.686875456879
6	29802	17643.252294799276	2.716947445056
6	29835	17667.291268951041	27.289542196323
6	29927	17739.549796075755	19.933896986111
6	29935	17744.878733561005	6.276532373408
6	29940	17748.791996856262	1.412601033226
6	29960	17766.348551817235	9.343268339163
6	29982	17774.282501002959	6.703962451737
6	30157	17831.909843570927	7.775402761879
6	30160	17833.602005211266	25.621298330641
6	30165	17849.359587771557	1.27508287169
6	30322	17929.681186165674	3.782513973792
6	30389	17972.937109439617	20.762547081837
6	30397	17975.943133440597	16.09069274117
6	30425	17986.758420991438	9.23447602988
6	30435	18003.912724302799	1.63465922121
6	30445	18008.062602925896	3.80309278235
6	30459	18013.371536020509	3.646295702965
6	30515	18076.483591063593	4.764205274497
6	30550	18099.946130368241	3.059110504077
6	30605	18128.165351447504	6.215292807991
6	30664	18153.383289320589	4.352741115895
6	30667	18154.654325988152	4.99807788832
6	30670	18155.978842031033	5.307462070651
6	30695	18165.409899350459	5.326714685396
6	30719	18172.617192628179	5.894259331319
6	30749	18200.495644596222	1.998014032468
6	30775	18209.344155117873	6.060611307974
6	30887	18271.338481081577	16.369488372488
6	30892	18273.306935408266	10.301320963774
6	30940	18311.01818186694	10.984850894769
6	30972	18323.241733138304	8.57526682876
6	31025	18354.200038209163	3.669479547627
6	31090	18405.753863309158	2.638301637965
6	31220	18541.533626387201	16.414805072217
6	31304	18604.166632885465	16.912307705856
6	31310	18607.197823249527	10.055070503907
6	31320	18615.156515181181	1.58867700547
6	31367	18654.058802669501	8.848620126111
6	31392	18664.126392093667	4.18147393322
6	31490	18707.25225684755	7.224273326809
6	31497	18723.205433676873	1.380348020606
6	31545	18759.067858274676	11.03689337246
6	31567	18776.886832307275	10.15258855167
6	31615	18833.868308460712	1.248763600364
6	31635	18853.234768152229	5.902686782746
6	31759	18931.257777702829	2.902032866572
6	31765	18934.386108822583	16.528513473035
6	31800	18952.33411008417	1.299037353508
6	31805	18960.354817808246	1.34820997566
6	31827	18983.757198642152	2.13746816002
6	31860	19001.345145928648	20.783550949225
6	31887	19023.612166438215	4.580754541792
6	31912	19039.622603679746	1.86386600621
6	31915	19041.121840683668	14.134070747873
6	32005	19114.254241573049	6.764508487678
6	32010	19117.064476245872	1.601014643721
6	32015	19127.57940648251	1.365511850454
6	32187	19228.039437593739	2.696976623904
6	32207	19234.3976321651	9.628981428966
6	32275	19283.565984153227	3.180517865393
6	32295	19309.719479542311	1.440987131372
6	32337	19340.025927175994	2.500039866303
6	32415	19374.838789776912	14.243281184882
6	32445	19399.31873830282	4.310994254646
6	32492	19443.419851819576	8.036087161413
6	32550	19466.039779452032	1.730970846303
6	32684	19569.28561367963	1.810376400687
6	32724	19596.692736516191	1.942945638672
6	32782	19615.164762687361	17.857352326855
6	32795	19627.930483947341	4.762850680457
6	32837	19659.780513965652	1.656090332568
6	32905	19711.820810429742	10.345884392534
6	32954	19750.200918370753	3.429119077804
6	32964	19754.116815293661	6.443985930442
6	32985	19761.814103892155	6.930409115845
6	33017	19776.64613955112	1.92159372692
6	33065	19802.478561864536	6.906815730979
6	33212	19875.756871328414	31.20468620724
6	33307	19906.720937438592	23.64584525064
6	33317	19910.347515376579	5.169535831716
6	33357	19933.457207581363	6.342169882373
6	33402	19952.24991597508	14.981643427847
6	33465	19976.360952711444	53.428649312759
6	33470	19978.859365117968	1.59862307068
6	33505	20012.529248678184	4.144098036798
6	33547	20025.752987412875	4.889823784441
6	33669	20067.091756196579	11.925509978605
6	33677	20069.953923608435	45.929274537102
6	33754	20124.588579436837	11.571350137548
6	33779	20132.860502356178	8.095412791484
6	33790	20137.619878806433	25.030860321483
6	33837	20154.567654912665	9.455673759494
6	33860	20179.064705326534	8.191352246748
6	33865	20187.228562340072	1.627045517601
6	33902	20227.963045919818	4.79737681861
6	33910	20237.073577989576	1.599139139242
6	34014	20289.609511963214	13.410089968866
6	34332	20500.417042230168	10.914277098075
6	34342	20504.024955439859	1.435594715364
6	34472	20552.57471941859	16.149839643672
6	34534	20582.079770298047	38.918808409582
6	34710	20736.31530336308	1.721190605499
6	34794	20771.5848452096	10.720468553832
6	34800	20774.332909540565	15.549846060761
6	34805	20783.438198304796	1.67792205587
6	34820	20805.412588550243	6.685756755514
6	34845	20833.83521865829	3.167704998052
6	34855	20840.599744055901	1.878841013834
6	34860	20851.133093961606	1.839860645868
6	35110	20995.926067463631	14.567807449644
6	35162	21018.409249783385	3.062935265142
6	35205	21038.151830811381	3.043745849983
6	35232	21049.27501204805	5.186206894091
6	35277	21076.782724056072	12.508342857255
6	35286	21078.778356763958	3.190954901757
6	35324	21092.946883586844	14.378808282271
6	35344	21099.113048907977	16.048223453085
6	35362	21105.331334662858	21.928451723573
6	35589	21195.495925053602	40.869107278795
6	35630	21211.005529917796	32.304686764013
6	35722	21266.029049998531	3.261358921804
6	35850	21333.670126397298	1.760432313755
6	35902	21365.28139500945	4.44717047109
6	35930	21382.473407906283	5.341424059371
6	35997	21426.006504219888	15.620489135251
6	36050	21476.878550477144	6.654169299555
6	36055	21486.773470469331	1.744001211971
6	36165	21540.381595998376	1.208924478851
6	36189	21554.965959111082	3.682914989442
6	36194	21556.411437090712	4.662613106523
6	36204	21560.268948132025	6.988703894726
6	36217	21565.588831980379	2.793345599264
6	36319	21614.659334047653	1.718594688736
6	36430	21667.784527845268	1.252074640244
6	36507	21707.957946536801	8.034396442426
6	36510	21709.724776940531	1.911716201699
6	36550	21733.205432961516	1.436399011314
6	36570	21758.993700421106	7.039402100333
6	36665	21808.615502769709	1.789644303732
6	36769	21875.703160123331	2.803994378818
6	36774	21876.97537393718	12.449181944876
6	36789	21881.95914801619	6.256056709333
6	36996	21992.87009573084	23.405508037671
6	37006	21996.513051661185	24.327898012111
6	37082	22027.187818052619	1.962598560564
6	37085	22028.954695514589	38.90236499263
6	37129	22058.955352753619	6.7047430854
6	37150	22070.109924562696	23.621593475154
6	37155	22071.631591600427	4.661499463408
6	37250	22118.587736483847	1.887727873709
6	37352	22151.219292810094	19.508599556196
6	37355	22153.127239587997	8.263072805549
6	37640	22327.041675801544	1.475115149841
6	37730	22376.718323563535	9.537774872798
6	37767	22404.63128912921	1.96658257097
6	37874	22467.182819702658	1.991830513419
6	37910	22484.740075437309	1.780689804628
6	37920	22498.254073178914	1.834302917123
6	37967	22568.814784570692	1.468823411129
6	37984	22575.20411360209	10.25914648902
6	37995	22579.915937880143	4.931233924523
6	38005	22589.930426351647	3.074747344063
6	38102	22623.623753786112	5.501787226142
6	38110	22627.859622768581	13.171269876374
6	38187	22659.566261359231	4.898586504762
6	38194	22661.531501624474	16.201190518592
6	38205	22668.19842511013	7.574788377809
6	38215	22687.814019235475	1.409686980024
6	38295	22728.630351439262	30.273390208446
6	38402	22780.637188023015	4.393587084196
6	38422	22787.52573955009	16.684194637754
6	38447	22795.425076144433	4.635874882771
6	38460	22801.326045953914	3.242064867581
6	38490	22828.792539888113	1.502368420362
6	38580	22861.673717534445	24.292167004724
6	38590	22869.025476416782	4.857387711664
6	38665	22924.557429334453	12.928172286337
6	38702	22951.013628868994	13.66329928682
6	38730	22968.77964521734	1.982588835433
6	38795	23023.398282389845	1.804633677378
6	38862	23083.531469820114	1.360660085455
6	38872	23087.314982216852	2.483412340381
6	38882	23089.883619993786	2.435339283755
6	38915	23132.894718696063	3.466672881294
6	38930	23169.032829602091	1.959292736277
6	39000	23205.948442734205	1.436269794777
6	39065	23244.978957205419	2.688421483472
6	39085	23264.192720315815	1.959384806268
6	39137	23298.710511784291	17.837038104758
6	39145	23312.284064005211	1.917365278862
6	39314	23416.249451561308	22.199451887213
6	39322	23418.665481746046	6.450777423027
6	39347	23427.741386674882	3.774341076907
6	39365	23437.956165119077	4.166163149012
6	39607	23571.644214887773	56.145266282328
6	39615	23574.308856155659	46.013443240262
6	39645	23587.515370648616	1.889840127822
6	39685	23607.330951988108	32.111697946306
6	39724	23634.98082114858	1.358184298314
6	39752	23645.654636443929	1.800481991584
6	39787	23661.610522789623	1.293031007238
6	39847	23705.918451121949	3.002028964714
6	39850	23707.510145908349	7.570459729492
6	39865	23716.80886227142	7.890507879085
6	39870	23719.121620275092	1.546656899154
6	39980	23762.943139450026	13.469129381988
6	39992	23767.692959303013	41.692283223775
6	39995	23769.235375133506	2.148205740691
6	40025	23785.22293550017	1.807797678001
6	40030	23788.073293025178	1.341792954318
6	40037	23800.058586033624	1.376028796285
6	40099	23820.452899110342	2.159910066564
6	40120	23828.466786172249	25.643485049875
6	40135	23837.973465534585	6.069078409374
6	40145	23842.391988611093	3.729078968688
6	40220	23922.980541431334	2.48502043658
6	40265	23960.465710088355	5.228883613581
6	40444	24045.092048349512	22.648179767817
6	40480	24057.800331082105	5.042454257611
6	40527	24074.636455460885	2.10702487049
6	40537	24078.151211235547	48.889851717127
6	40665	24133.317740439359	3.776795973128
6	40680	24140.10633413328	6.639551815036
6	40710	24153.211967609227	2.315718441963
6	40780	24197.706866640925	1.520996201597
6	40862	24246.419487726379	6.283913467638
6	40867	24247.645123850059	9.446358376349
6	40895	24267.791942205721	3.413707165654
6	40909	24274.614192312319	1.895366438664
6	40915	24277.593222778585	4.411802678051
6	40925	24284.648025627949	2.109177365955
6	40972	24323.914941129144	6.070337331777
6	41030	24392.339257977464	1.691752710007
6	41054	24407.064027248166	1.369812543876
6	41135	24436.677051417199	4.319027717984
6	41147	24440.527467192157	1.695790150017
6	41260	24498.195863847716	7.358373570747
6	41332	24523.606053732362	1.736229208298
6	41355	24531.745249162268	27.654460060572
6	41377	24541.673259882183	4.783576387633
6	41582	24618.437550035754	2.461401929786
6	41587	24620.301675110573	9.245959192017
6	41660	24661.854894004367	1.73808494918
6	41670	24664.956514036665	1.60118172655
6	41809	24712.101363261894	44.884575551078
6	41821	24715.916770846315	9.332677226608
6	41830	24720.597102184699	6.941316298944
6	41871	24732.344819894288	7.767954436844
6	41909	24745.447719690246	16.599893171359
6	41912	24746.921126138834	13.010628357332
6	41915	24748.152796321032	3.442714836346
6	41945	24770.381506488484	1.935249481536
6	42022	24812.759306783586	14.587502579697
6	42030	24816.868014769776	28.841916815882
6	42059	24829.25555837878	8.789068962402
6	42065	24832.604335641274	4.577197076708
6	42087	24845.334336106949	2.61045529323
6	42214	24894.277785069755	18.927205740468
6	42324	24929.060232740525	13.668793740081
6	42380	24948.264914744045	56.175341858303
6	42480	24987.33791436696	2.841457691453
6	42517	25032.549524107252	13.28108446992
6	42597	25092.977589056583	4.254167720117
6	42645	25115.303526214769	6.429836884465
6	42660	25143.512470865063	1.241258733906
6	42675	25173.715104720319	1.565931576118
6	42720	25217.649912485304	3.731608480038
6	42725	25219.404723128794	1.561658908427
6	42735	25237.589339038601	1.276323056966
6	42805	25282.808058088519	7.058107922576
6	42827	25305.11142992321	1.229096376337
6	42892	25359.684582732846	13.227948966996
6	42905	25369.313103066696	3.116730849916
6	42947	25422.559751435574	3.209758214681
6	42970	25431.06157999252	15.462319748006
6	43032	25452.170268790555	37.315786379575
6	43080	25485.10979644779	18.642076760421
6	43085	25490.111744300418	1.226914906316
6	43100	25498.492429637641	7.927292893713
6	43137	25521.483648739868	4.087599346545
6	43145	25524.914668315203	2.578713514472
6	43155	25555.02105331142	1.495363659412
6	43160	25565.948374440175	1.704971248657
6	43185	25584.890802298225	8.748584471308
6	43202	25594.032632627872	3.204831938941
6	43260	25621.334593287796	1.73715315517
6	43415	25692.53262845748	1.858970926516
6	43437	25702.113278942269	1.286292983033
6	43440	25703.383229854044	2.034224699315
6	43555	25775.556718920653	1.316540947556
6	43580	25791.189807705301	5.846884092212
6	43617	25825.03453435374	6.218259773989
6	43669	25845.422680717973	10.709945001048
6	43794	25903.227092663832	33.377461212416
6	43807	25908.19851663215	10.153665664564
6	43874	25929.591813476536	2.053466037325
6	43894	25936.025944504854	20.237223304678
6	43902	25939.264982743714	32.713079213756
6	44039	26007.587668965547	4.625928235378
6	44065	26023.648705749511	6.382496011712
6	44099	26053.135037975987	1.503506355919
6	44190	26110.511859307564	1.408956317045
6	44195	26116.451007720153	1.975392589159
6	44215	26131.981698680105	4.0099199215
6	44250	26155.542762672769	6.015108248964
6	44317	26178.542420324334	2.950401877296
6	44340	26193.244471586301	2.184634574506
6	44382	26237.779257021489	1.957196842196
6	44505	26334.790849375799	1.397643068992
6	44520	26342.786180408488	4.971571991379
6	44565	26363.112735872992	13.570589590268
6	44570	26367.574066121742	1.596504252963
6	44605	26402.798781699114	10.095715010025
6	44655	26473.983141253518	1.420769003965
6	44675	26508.596459377474	10.72468373893
6	44717	26525.938533361355	6.912519066648
6	44725	26529.5656233641	8.8516099043
6	44730	26535.705622612351	1.532914726809
6	44742	26553.629049867641	1.414232495241
6	44805	26580.511451494945	1.247578853369
6	44877	26614.854732246243	8.08171873375
6	44970	26687.450761198263	1.570905923285
6	45095	26740.713099346741	5.224965798505
6	45100	26749.194034661214	1.489077560417
6	45305	26851.648474581155	3.227003419344
6	45332	26871.228994933294	10.15589538879
6	45337	26872.689385512436	2.03364685073
6	45347	26877.222743938735	5.592211762531
6	45357	26880.615841345547	2.915504985106
6	45382	26897.713376607101	14.720084814317
6	45410	26910.469316295497	1.606613187864
6	45460	26932.919459783476	6.854069150685
6	45500	26980.296522596657	1.996978995763
6	45565	27026.124969424838	7.691351221951
6	45710	27099.135592055061	18.911607962547
6	45720	27127.500756175494	2.868704932361
6	45837	27169.938768426337	1.472360436246
6	45840	27171.506676965215	38.520408361279
6	45888	27199.850369003476	5.494936850215
6	45902	27206.385810995535	7.620037880485
6	45907	27207.648658025512	18.102887971713
6	45942	27223.73067180028	6.077399595559
6	45955	27229.230136414538	13.233165915857
6	46010	27258.225435992235	1.977296584472
6	46077	27279.530278567214	4.226868412181
6	46109	27289.9237475884	30.683686633647
6	46184	27320.081895651364	5.241212375515
6	46190	27323.39549735363	11.3993388421
6	46225	27338.966670698223	19.420836500734
6	46240	27347.967634486269	5.50270173382
6	46255	27361.963908163927	18.389366367796
6	46262	27374.792468739241	1.453093631938
6	46292	27413.616179605175	4.825085303881
6	46305	27425.814614951617	1.270420321636
6	46375	27490.032660102384	5.330900647062
6	46380	27496.575958645833	1.546405342408
6	46390	27502.987348141117	3.144164526818
6	46417	27539.035102327463	15.342992001787
6	46425	27543.285076486757	6.507027655074
6	46485	27573.972158213148	24.644400719046
6	46494	27577.129831523299	22.696427623063
6	46569	27642.474019706002	5.37283479362
6	46610	27659.906492861569	1.752647344768
6	46620	27667.736670374188	1.716268757544
6	46709	27725.955762426138	10.044171356548
6	46734	27733.37148429095	34.750912696869
6	46752	27739.842782594404	7.718948467835
6	46775	27758.600710958629	10.597369503518
6	46857	27798.225499528797	8.403455998206
6	46872	27803.524164528737	3.313645406932
6	46925	27838.701979369359	1.88852237314
6	46945	27855.579484766486	7.502665663875
6	47072	27921.607830890616	10.234450385877
6	47095	27931.505089765912	15.024417543443
6	47105	27951.147685295129	1.786953498237
6	47240	28028.192700652312	22.092086283886
6	47355	28097.394246685328	1.803239610605
6	47372	28108.168095866086	1.2845043635
6	47380	28111.466300516346	4.536274954212
6	47450	28143.772390668792	19.223016117629
6	47467	28149.900003413242	12.444763345579
6	47512	28211.00353067125	1.286664476804
6	47619	28275.839698069903	7.458798955194
6	47627	28279.285642922844	5.460168122893
6	47682	28299.470177486724	10.311230033021
6	47690	28304.403481165772	1.513733789138
6	47695	28310.864686404582	1.827534188516
6	47845	28417.03705663568	1.464471765421
6	47859	28421.308573684172	1.64905726265
6	47884	28428.768337787392	10.454554903136
6	47917	28441.13296638222	1.465929966142
6	47920	28442.483255979582	8.770178478359
6	47925	28444.584949575079	18.708385731166
6	48082	28537.696616224095	1.859546016715
6	48100	28545.990952175793	29.385836232059
6	48150	28569.20581351175	20.665006870321
6	48216	28596.174069312005	5.662152268603
6	48222	28599.211250951677	7.177684270481
6	48225	28601.095730082109	11.16457909408
6	48237	28611.45496050505	1.919748389806
6	48334	28673.468111604136	1.378046867251
6	48394	28693.06561778151	2.223763535677
6	48412	28699.396653686283	6.306744310149
6	48445	28740.079848252471	1.263367173821
6	48532	28778.000023243448	1.589084180664
6	48595	28808.147077423175	35.356479447306
6	48625	28832.206191900269	5.02293175105
6	48754	28978.709466630944	29.260828442924
6	48760	28981.620669887566	11.797002524118
6	48887	29025.633554979166	25.492201900984
6	48892	29027.430612136735	25.220926569892
6	48914	29035.945289540863	1.915262405016
6	48932	29042.972848508521	2.035543427521
6	48970	29057.858333246473	10.013120661675
6	48975	29067.455544970094	1.553120429255
6	49027	29084.054350665378	13.75544771538
6	49076	29099.050951486806	28.814291841024
6	49185	29137.960076261557	30.088937415285
6	49226	29153.283942982095	8.759880614479
6	49279	29172.660461100093	16.087762997864
6	49287	29175.202793591558	28.00457291308
6	49290	29176.594610494277	30.239019762143
6	49404	29225.550971033385	2.080687292788
6	49444	29239.041775816826	47.490725135615
6	49457	29244.125423160715	3.679370996988
6	49465	29247.625495839163	21.696349215309
6	49517	29273.701454915765	1.829461740516
6	49567	29294.502419606255	2.059836669468
6	49605	29308.624864829386	4.688126294945
6	49620	29313.52270746552	8.167142828356
6	49639	29328.511611538778	1.477446314506
6	49680	29348.833942026985	6.392473577183
6	49730	29373.795523318254	7.712301654695
6	49849	29468.838509616907	10.776595597893
6	49863	29471.647699930611	15.444494565743
6	49950	29499.757639193812	14.8680203467
6	49956	29502.538782875331	31.667818539436
6	50018	29521.894521686898	40.096987612536
6	50037	29529.874545173625	12.172969439555
6	50052	29534.639738246895	43.282935768958
6	50062	29538.019553675519	59.759115060856
6	50065	29539.949639407748	36.986569181141
6	50174	29601.653580384281	6.100495610135
6	50184	29604.191142111969	20.582304566227
6	50197	29609.573057983767	7.26741589848
6	50262	29630.544557385097	12.646287404273
6	50270	29633.827889774825	11.841260850637
6	50290	29644.193035486494	4.821297528783
6	50295	29646.30014279305	1.770142746903
6	50425	29716.229684855216	3.608058066774
6	50440	29733.814801963545	1.997304743342
6	50450	29742.826077888247	7.324006369504
6	50607	29820.655384717755	31.323534027135
6	50617	29826.884691592802	6.98945887648
6	50645	29873.916382312215	1.781298831105
6	50664	29894.969387711973	1.853108800575
6	50674	29898.162152328917	4.270089449091
6	50691	29903.617286226356	5.680148244734
6	50755	29933.362497694585	9.228113321767
6	50782	29952.443996107141	2.530031285678
6	50890	29990.599760154312	26.781572969227

