version 2
run Third_exit_5-10-20191023-00:20:19-5289
attr configname Third_exit_5
attr datetime 20191023-00:20:19
attr experiment Third_exit_5
attr inifile omnetpp.ini
attr iterationvars ""
attr iterationvarsf ""
attr measurement ""
attr network ResponseTimeNetwork
attr processid 5289
attr repetition 10
attr replication #10
attr resultdir results
attr runnumber 10
attr seedset 10
param **.Source.interArrivalTime exponential(6s)
param **.jobPriority bernoulli(0.8)
param **.PS.serviceTimeU1 "uniform(1.2s, 2.0s)"
param **.PS.serviceTimeU2 "uniform(2.4s, 2.8s)"
param **.SS1.serviceTime exponential(1.4s)
param **.SS2.serviceTime exponential(2s)
param **.PS.exitProbability bernoulli(0.5)

vector 0 ResponseTimeNetwork.SS1 queueLength:vector ETV
attr interpolationmode sample-hold
attr title "queue length, vector"
vector 1 ResponseTimeNetwork.SS2 queueLength:vector ETV
attr interpolationmode sample-hold
attr title "queue length, vector"
vector 2 ResponseTimeNetwork.QueueU1 queueLength:vector ETV
attr interpolationmode sample-hold
attr title "queue length, vector"
vector 3 ResponseTimeNetwork.QueueU2 queueLength:vector ETV
attr interpolationmode sample-hold
attr title "queue length, vector"
vector 4 ResponseTimeNetwork.sink lifeTimeU1:vector ETV
attr interpolationmode none
attr title "lifetime of arrived jobs U1, vector"
attr unit s
vector 5 ResponseTimeNetwork.sink lifeTime:vector ETV
attr interpolationmode none
attr title "lifetime of arrived jobs, vector"
attr unit s
vector 6 ResponseTimeNetwork.sink lifeTimeU2:vector ETV
attr interpolationmode none
attr title "lifetime of arrived jobs U2, vector"
attr unit s
0	0	0	0
0	147	100.188450611695	1
0	149	100.72354011131	0
0	156	101.864802295282	1
0	163	104.765438078493	0
0	256	132.436907297685	1
0	258	132.930005134465	0
0	590	261.492915101795	1
0	591	263.322594009223	0
0	610	269.80977689457	1
0	619	273.143521888494	0
0	887	410.312303955772	1
0	889	410.596894930706	0
0	907	417.101465572336	1
0	909	418.469481404981	0
0	1142	553.532157058162	1
0	1144	554.359382552579	0
0	1165	562.992823497524	1
0	1166	563.386452652094	0
0	1327	654.679475423138	1
0	1331	656.329270476119	0
0	1510	774.768382295858	1
0	1511	774.938333368958	0
0	1529	779.159911123388	1
0	1531	780.255024619564	0
0	1544	783.994349101656	1
0	1549	785.846851119683	2
0	1551	787.059239019239	1
0	1558	787.778558740407	0
0	1605	804.469875254207	1
0	1606	804.719682497442	0
0	1610	806.09224095913	1
0	1611	808.012373521248	0
0	1670	838.569146837492	1
0	1671	839.012463413721	0
0	1675	840.654541839084	1
0	1676	840.732553716061	0
0	1715	853.437134451771	1
0	1719	856.40182557751	0
0	1722	857.020499300416	1
0	1729	860.123727024344	0
0	1804	887.916844863546	1
0	1814	891.269384100535	0
0	2325	1298.481902592596	1
0	2338	1301.826929694259	0
0	2344	1303.873597013999	1
0	2354	1307.970299210605	0
0	2565	1453.18832469209	1
0	2584	1458.374172524459	0
0	2592	1461.136519614946	1
0	2599	1463.162638394639	0
0	2815	1594.95742017203	1
0	2816	1598.583819549643	0
0	2871	1614.894453450416	1
0	2873	1615.922133284894	0
0	3095	1741.112656444371	1
0	3099	1745.948890808472	0
0	3145	1773.345491137436	1
0	3146	1773.698369152233	0
0	3150	1775.32059233705	1
0	3151	1775.322286557788	0
0	3245	1829.754632074998	1
0	3246	1832.822952517254	0
0	3250	1834.174851611575	1
0	3251	1836.262948619214	0
0	3322	1863.398972216255	1
0	3324	1864.440553283372	0
0	3327	1864.627212369635	1
0	3330	1866.172797139555	2
0	3331	1866.366592458986	1
0	3334	1866.887984043987	0
0	3527	1996.971723613817	1
0	3534	1999.502052666577	0
0	3926	2229.495843804587	1
0	3928	2230.289755156537	0
0	3955	2236.805489610655	1
0	3965	2240.362369090123	0
0	3968	2241.32123809695	1
0	3971	2242.755045041216	2
0	3973	2243.190579886212	1
0	3975	2244.407807063152	0
0	3978	2244.670457730775	1
0	3980	2244.969063368395	0
0	3991	2248.96909843642	1
0	3993	2249.016911456258	0
0	3996	2250.444489335788	1
0	3998	2250.920116437303	0
0	4019	2258.819029855689	1
0	4024	2260.976739720791	0
0	4515	2551.849144834287	1
0	4522	2553.376332171475	2
0	4524	2554.803190068642	1
0	4527	2554.843805258562	2
0	4529	2554.978492911252	1
0	4531	2555.144008265856	0
0	4712	2713.720548124171	1
0	4714	2714.346117817267	0
0	4942	2856.488027502877	1
0	4944	2856.630620192579	0
0	5140	2985.413003793767	1
0	5141	2986.277560092598	0
0	5317	3155.513580067298	1
0	5319	3155.81776789845	0
0	5350	3167.269506598095	1
0	5351	3168.455402884207	0
0	5460	3218.698534315037	1
0	5461	3219.84914536773	0
0	5465	3221.06706593408	1
0	5466	3221.51458374469	0
0	5520	3257.977407190564	1
0	5524	3259.675568650841	0
0	5552	3269.03961523982	1
0	5554	3269.277380028279	0
0	5560	3271.559468459582	1
0	5561	3273.405052265377	0
0	5601	3284.830042907633	1
0	5604	3286.290024632253	2
0	5608	3286.986030288535	1
0	5610	3287.152862551355	0
0	5624	3292.991587230786	1
0	5626	3293.673027903473	0
0	5632	3295.678014592118	1
0	5634	3296.272655625577	0
0	5950	3487.299379299068	1
0	5951	3487.423876747858	0
0	5970	3493.790927904097	1
0	5971	3494.019620108434	0
0	5980	3497.164495406129	1
0	5981	3497.971997676923	0
0	6177	3616.620282560057	1
0	6179	3617.048626357141	0
0	6250	3656.039446331949	1
0	6259	3659.627296998784	0
0	6344	3684.740243366744	1
0	6349	3686.952849988143	0
0	6453	3721.397154891523	1
0	6455	3721.82492990611	0
0	6506	3739.697147612866	1
0	6508	3739.739794409788	0
0	6539	3747.446060804125	1
0	6544	3748.942785322843	0
0	6659	3788.085171792342	1
0	6666	3791.833178927012	0
0	6683	3794.935508020839	1
0	6685	3794.968200187547	0
0	6698	3799.988326513453	1
0	6702	3801.294093969708	0
0	6705	3801.854837652727	1
0	6707	3802.054272908279	0
0	6755	3821.360627862966	1
0	6756	3822.501098239657	0
0	6792	3852.809074766489	1
0	6796	3855.10441675902	0
0	7310	4194.466273645868	1
0	7311	4195.254438177025	0
0	7402	4257.146825313634	1
0	7406	4259.941949383911	0
0	7948	4610.151812328833	1
0	7958	4613.275525321129	2
0	7960	4613.493471315368	1
0	7962	4614.496957949898	0
0	7965	4615.004357937413	1
0	7967	4615.263060143591	0
0	7978	4619.200751172255	1
0	7982	4619.976107574841	0
0	8011	4630.757978128517	1
0	8013	4631.715116443281	0
0	8021	4633.832309138837	1
0	8023	4633.839587239238	0
0	8152	4678.753940538924	1
0	8154	4679.580685097551	0
0	8165	4683.752999118391	1
0	8166	4684.520871231111	0
0	8541	4933.434537509772	1
0	8546	4936.341038132299	0
0	8932	5124.624827187688	1
0	8934	5125.134097092897	0
0	8937	5126.315119227202	1
0	8941	5130.981711917459	0
0	9145	5296.977739111934	1
0	9146	5296.994452447492	0
0	9312	5388.740339394898	1
0	9314	5389.552730277371	0
0	9435	5510.509629719836	1
0	9436	5511.198899086865	0
0	9505	5544.03509322687	1
0	9509	5545.030868398214	0
0	9597	5578.903548135568	1
0	9599	5579.197391526617	0
0	9602	5580.754082001146	1
0	9604	5581.608440970354	0
0	9610	5583.880018481199	1
0	9611	5584.874546590367	0
0	9917	5787.21401999225	1
0	9921	5788.769456082412	0
0	9925	5790.116777000406	1
0	9926	5791.987094287221	0
0	9930	5793.634078521487	1
0	9931	5795.150323048403	0
0	9979	5819.040861686557	1
0	9984	5820.980961925029	2
0	9989	5823.531209386578	1
0	9991	5823.712964058398	0
0	10085	5873.082359067167	1
0	10086	5876.247334655709	0
0	10180	5939.53476380323	1
0	10181	5942.2457142989	0
0	10367	6049.519537700302	1
0	10374	6051.567488171466	0
0	10392	6056.145847462825	1
0	10396	6058.073303534744	0
0	10597	6163.728302915139	1
0	10599	6163.818792915182	0
0	10657	6191.529967241145	1
0	10664	6195.279210270559	0
0	10694	6203.322895060772	1
0	10696	6203.75532625516	0
0	10742	6235.915150262848	1
0	10746	6237.672487551421	0
0	10797	6260.707477249183	1
0	10799	6260.93695409683	0
0	11112	6425.525616456334	1
0	11116	6426.727641623933	0
0	11230	6499.446706936026	1
0	11231	6499.455134294048	0
0	11410	6637.803800780204	1
0	11411	6639.053128799145	0
0	11880	6925.351554800382	1
0	11881	6927.123698090205	0
0	12117	7067.843205962306	1
0	12119	7068.632610695262	0
0	12379	7220.965306782917	1
0	12381	7221.026339478793	0
0	12437	7239.78501207997	1
0	12439	7240.229773784568	0
0	12475	7253.029043598482	1
0	12476	7253.790380659613	0
0	12480	7255.035721113819	1
0	12481	7256.850650611123	0
0	12531	7276.402449199418	1
0	12533	7277.447792464917	0
0	12538	7277.819351491379	1
0	12540	7278.070212032143	0
0	12566	7286.239861944365	1
0	12571	7287.765707412452	0
0	12626	7305.353188655012	1
0	12634	7308.814017979447	0
0	12807	7382.575395577312	1
0	12809	7382.67603863291	0
0	12942	7501.639897214151	1
0	12949	7503.845310596265	0
0	13065	7581.403682386082	1
0	13069	7582.805160473306	0
0	13072	7582.866786334126	1
0	13074	7584.36714757969	0
0	13080	7586.508478515989	1
0	13081	7588.722695801958	0
0	13120	7607.291470367542	1
0	13121	7607.693340803448	0
0	13214	7649.130274371764	1
0	13217	7650.521521988472	2
0	13219	7650.912871612434	1
0	13226	7652.645948371516	0
0	13255	7663.721176960653	1
0	13261	7666.538964802345	0
0	13367	7709.929728393095	1
0	13369	7710.684125647186	0
0	13381	7712.853547789367	1
0	13383	7713.015519044253	0
0	13388	7714.594111157233	1
0	13391	7716.013475711295	2
0	13396	7717.568484753208	3
0	13398	7717.745801686493	2
0	13400	7717.860573493939	1
0	13403	7718.921578138532	2
0	13405	7719.261490525684	1
0	13407	7719.849530154976	0
0	13434	7729.354013720923	1
0	13439	7730.621480743983	2
0	13441	7731.12203542517	1
0	13443	7731.251664195047	0
0	13469	7739.978922726423	1
0	13472	7741.778060230449	2
0	13476	7743.191156485397	1
0	13479	7743.566086555303	0
0	13489	7746.423059439565	1
0	13494	7749.620197830978	0
0	13502	7751.853415723796	1
0	13506	7753.478953481283	0
0	13509	7753.808398936967	1
0	13514	7755.572645484003	2
0	13516	7755.86992235996	1
0	13521	7757.354154068941	0
0	13527	7759.475174714158	1
0	13529	7759.506317145382	0
0	13534	7761.221843990589	1
0	13536	7762.477498340043	0
0	13662	7811.643817737466	1
0	13664	7812.057662281093	0
0	13683	7815.720917355037	1
0	13685	7816.821661117537	0
0	13696	7820.890550017684	1
0	13699	7822.603210216901	2
0	13704	7825.97542416903	1
0	13709	7827.24679610253	0
0	13976	8021.763345198907	1
0	13978	8022.036397753227	0
0	14252	8143.339054899889	1
0	14259	8147.987154675452	0
0	14290	8160.967726650459	1
0	14299	8163.014722041193	0
0	14367	8196.558415815797	1
0	14376	8200.826824843301	0
0	15069	8596.41381627268	1
0	15074	8598.987792408141	0
0	15132	8616.620429798242	1
0	15134	8616.759306890419	0
0	15209	8669.270194483566	1
0	15211	8669.538024626005	0
0	15272	8696.884789612524	1
0	15274	8697.130469930664	0
0	15314	8709.20373992511	1
0	15316	8709.882683171953	0
0	15319	8710.85463451446	1
0	15326	8714.13763457974	0
0	15372	8733.116491492054	1
0	15374	8733.508378364618	0
0	15514	8812.309095747575	1
0	15516	8812.324562371189	0
0	15524	8815.491812365681	1
0	15528	8816.278423326535	0
0	15713	8900.824709136463	1
0	15715	8902.321055633468	0
0	15723	8903.753066176787	1
0	15728	8905.699577434227	2
0	15732	8907.027574148889	1
0	15735	8907.082784782589	2
0	15751	8913.655004367439	1
0	15753	8913.733753156321	0
0	15897	8971.887247923818	1
0	15899	8972.413136012659	0
0	16335	9295.265403378154	1
0	16336	9297.944649759987	0
0	16699	9591.565640943005	1
0	16701	9591.619913723716	0
0	16704	9593.049018479019	1
0	16719	9598.018619462007	0
0	16725	9600.657388609339	1
0	16726	9602.934739190391	0
0	16886	9702.434583375688	1
0	16889	9703.704610738243	2
0	16896	9707.333270198941	1
0	16901	9710.912531474507	0
0	16978	9748.440652404529	1
0	16983	9750.99984138123	0
0	17024	9762.569756198292	1
0	17031	9764.373237356732	0
0	17830	10290.381523029369	1
0	17831	10290.823222760009	0
0	17835	10292.777283057841	1
0	17839	10293.216228097418	0
0	17842	10294.245140543833	1
0	17844	10295.646954906688	0
0	18258	10554.54938945739	1
0	18260	10554.714928773437	0
0	18263	10556.23714084296	1
0	18265	10556.930221963558	0
0	18268	10557.469688399755	1
0	18270	10558.065432640436	0
0	18273	10559.018192283311	1
0	18276	10560.274291282022	2
0	18278	10560.618035315935	1
0	18283	10562.64328000882	0
0	18286	10563.14413700054	1
0	18293	10564.96681714702	0
0	18348	10582.686507309663	1
0	18377	10594.599346701061	2
0	18379	10594.891716620799	1
0	18381	10595.03926770932	0
0	18962	10948.723384048221	1
0	18966	10951.045801562701	0
0	18974	10952.47134363528	1
0	18976	10952.825654958864	0
0	19435	11256.746029137194	1
0	19436	11257.655811592123	0
0	19472	11268.699301671913	1
0	19474	11268.838841351818	0
0	19812	11426.421177276055	1
0	19814	11426.68797286237	0
0	19850	11445.731705845888	1
0	19851	11447.493653909712	0
0	19855	11449.18948634047	1
0	19860	11454.35355159349	2
0	19864	11455.596237204289	1
0	19866	11455.880859919581	0
0	20177	11648.975796749604	1
0	20183	11649.554537451874	0
0	20199	11655.646957402092	1
0	20204	11658.047905512579	0
0	20270	11697.933390936768	1
0	20271	11699.850446639441	0
0	20517	11867.157582009627	1
0	20519	11867.294071487407	0
0	20560	11881.041899729624	1
0	20561	11882.606934382831	0
0	20692	11958.31318789145	1
0	20699	11960.139851449254	0
0	20712	11965.62066810183	1
0	20714	11966.654356924005	0
0	20927	12079.220573552883	1
0	20929	12079.431809783259	0
0	21155	12190.335658791291	1
0	21156	12191.386420285663	0
0	21295	12259.091265185958	1
0	21296	12259.55642437085	0
0	21439	12324.388297935699	1
0	21444	12326.887144125845	0
0	21452	12329.265824016308	1
0	21454	12329.86018064731	0
0	22000	12792.45900903213	1
0	22001	12792.924306576661	0
0	22035	12804.965620566778	1
0	22036	12805.688386056967	0
0	22252	12985.265476880971	1
0	22254	12985.631041973534	0
0	22338	13023.679064471778	1
0	22343	13025.246482678261	2
0	22345	13025.732788886712	1
0	22350	13026.856602955408	0
0	22353	13027.986761353669	1
0	22360	13030.999048402124	0
0	22363	13031.177922653353	1
0	22365	13031.507768551584	0
0	22383	13037.625272821209	1
0	22385	13038.857051924731	0
0	22630	13161.500319944568	1
0	22631	13162.391185522839	0
0	22662	13182.719200388361	1
0	22664	13183.878932022656	0
0	22667	13184.696816133727	1
0	22670	13185.970328900982	2
0	22671	13186.54493125922	1
0	22674	13187.964557553964	0
0	22842	13299.313597413333	1
0	22844	13299.439333033256	0
0	23055	13451.128893170927	1
0	23056	13452.834071906344	0
0	23194	13528.050371923745	1
0	23199	13529.663630372174	2
0	23209	13532.989803414308	3
0	23216	13534.242811110691	4
0	23218	13534.770850483619	3
0	23225	13536.437465090539	2
0	23230	13537.14945378055	1
0	23232	13537.755733760578	0
0	23258	13546.195344312192	1
0	23260	13546.927880181612	0
0	23263	13547.945478822366	1
0	23267	13549.076055399899	0
0	23292	13556.100783317798	1
0	23294	13556.304721461281	0
0	23297	13557.683042348811	1
0	23302	13559.237772382313	2
0	23305	13560.890014523903	3
0	23308	13562.1062867184	4
0	23312	13563.138063616951	3
0	23315	13563.54228842471	4
0	23317	13563.748025718403	3
0	23319	13563.80418977265	2
0	23329	13566.362294671644	1
0	23334	13568.872174106547	0
0	23340	13571.207124401519	1
0	23343	13572.82579406731	2
0	23345	13573.073955317496	1
0	23347	13574.133380674663	0
0	23350	13574.434386077413	1
0	23353	13575.929443066084	2
0	23355	13575.940175780015	1
0	23360	13577.713076360041	2
0	23362	13578.625026831555	1
0	23364	13578.800685121342	0
0	23374	13581.400758154953	1
0	23376	13581.520737615797	0
0	23405	13591.837229984516	1
0	23407	13593.102072691202	0
0	23410	13593.210144716019	1
0	23412	13593.995212753315	0
0	23420	13595.775390396343	1
0	23422	13597.312528338205	0
0	23430	13599.020810428151	1
0	23432	13599.100560395821	0
0	23454	13608.936295777822	1
0	23459	13612.1861951232	0
0	23467	13614.517539302336	1
0	23469	13614.616188164699	0
0	23850	13878.912160162914	1
0	23854	13879.398743589838	0
0	23897	13892.343625126641	1
0	23902	13894.07599413586	2
0	23904	13894.624014077816	1
0	23911	13897.969369450681	0
0	24310	14178.635169501901	1
0	24311	14180.096795241531	0
0	24488	14251.578720021146	1
0	24490	14251.940510042957	0
0	24862	14469.541368261133	1
0	24866	14472.057746672856	0
0	25120	14694.806851995638	1
0	25121	14696.514053296289	0
0	25125	14697.948127642824	1
0	25131	14701.652465540166	0
0	25290	14786.435392472812	1
0	25291	14787.426858091559	0
0	25350	14830.946636102082	1
0	25351	14834.920445376732	0
0	25695	15073.653413827348	1
0	25696	15075.489517559003	0
0	25882	15215.689105509819	1
0	25884	15215.808049423369	0
0	25942	15238.96183589255	1
0	25944	15240.430980787979	0
0	25950	15241.965002736687	1
0	25951	15242.098677337276	0
0	26049	15286.491315123986	1
0	26052	15287.812850197766	2
0	26054	15289.013227421864	1
0	26061	15291.357133210498	0
0	26066	15291.578356632393	1
0	26068	15292.890681710731	0
0	26074	15294.680770839553	1
0	26079	15297.290299186962	0
0	26111	15305.587590024609	1
0	26113	15305.720014263454	0
0	26123	15309.027094319451	1
0	26125	15309.208994562205	0
0	26128	15310.667443150456	1
0	26130	15310.681137935835	0
0	26194	15330.742944055039	1
0	26197	15332.085947196733	2
0	26199	15333.130360435135	1
0	26211	15337.72611684536	0
0	26222	15340.886312636895	1
0	26226	15342.035874166019	0
0	26239	15345.880996821051	1
0	26241	15346.515385647436	0
0	26380	15434.153884028743	1
0	26381	15435.752088234354	0
0	26420	15459.956359928639	1
0	26421	15460.751316121583	0
0	26425	15461.962661372674	1
0	26426	15462.740271392612	0
0	26967	15779.710640772521	1
0	26969	15780.665263572347	0
0	27090	15884.015538065219	1
0	27091	15884.015871300418	0
0	27207	15965.650248806305	1
0	27211	15966.845767289518	0
0	27214	15967.167565745242	1
0	27216	15967.190596850111	0
0	27226	15970.337272795976	1
0	27231	15972.366891130768	0
0	27234	15972.999457720794	1
0	27236	15974.249376593426	0
0	27239	15974.516561605163	1
0	27242	15976.064701541267	2
0	27244	15976.197836175131	1
0	27247	15977.739900515355	2
0	27249	15978.226300628973	1
0	27256	15979.188878702259	0
0	27259	15980.303014878124	1
0	27269	15983.713863589612	0
0	27280	15988.07756457416	1
0	27281	15988.6943560116	0
0	27417	16096.221091952034	1
0	27419	16096.739341209857	0
0	27532	16142.725124820717	1
0	27535	16144.415506762103	2
0	27536	16145.218214876145	1
0	27540	16147.129574325621	2
0	27544	16147.852502254817	1
0	27547	16149.420893737029	2
0	27549	16150.5200406102	1
0	27552	16150.638753557492	2
0	27554	16150.907451538414	1
0	27559	16152.771779525762	0
0	28152	16444.816031221198	1
0	28154	16445.698268591345	0
0	28157	16446.63401350704	1
0	28160	16447.975836261818	2
0	28161	16448.011942146394	1
0	28164	16448.051780784844	0
0	28169	16449.882323754441	1
0	28171	16449.937532777433	0
0	28242	16488.902992570505	1
0	28244	16488.953095491437	0
0	28277	16500.348538792425	1
0	28279	16501.68773372446	0
0	28314	16516.514328793768	1
0	28316	16517.033983367965	0
0	28321	16518.189982511435	1
0	28324	16519.993621524941	2
0	28326	16520.075045998957	1
0	28332	16521.031992171179	0
0	28335	16521.432747743983	1
0	28337	16522.143821860394	0
0	28454	16581.773424636021	1
0	28456	16582.484939885355	0
0	28476	16588.036342496804	1
0	28482	16591.478346267163	2
0	28484	16592.918610281775	1
0	28489	16593.336224911634	0
0	28502	16598.080853713125	1
0	28505	16599.97843274866	2
0	28506	16601.030312910513	1
0	28512	16602.739626251557	2
0	28517	16604.342744158418	3
0	28519	16604.685735518291	2
0	28521	16605.074527440104	1
0	28524	16606.097124126949	2
0	28526	16606.200142777422	1
0	28529	16607.480006777332	2
0	28531	16608.643905067586	1
0	28534	16609.240089619928	2
0	28541	16611.265981644439	1
0	28543	16611.29179205901	0
0	28564	16618.425363683164	1
0	28567	16619.629984411247	2
0	28570	16621.000886926636	3
0	28571	16621.062978358024	2
0	28576	16624.868360757259	1
0	28581	16626.3190482035	0
0	28659	16676.930079680833	1
0	28661	16677.117554361065	0
0	28672	16681.09298096482	1
0	28674	16682.131830727018	0
0	28800	16758.11896023579	1
0	28801	16759.371348814835	0
0	28905	16809.387113647364	1
0	28906	16809.54456889945	0
0	28932	16817.354845462543	1
0	28934	16818.526693832108	0
0	28937	16818.968742020232	1
0	28939	16820.308467097687	0
0	28942	16820.762229038765	1
0	28944	16821.235887155143	0
0	28947	16821.96613928209	1
0	28951	16823.24812004915	0
0	28954	16823.355361293991	1
0	28956	16823.671313507418	0
0	29480	17189.643213927965	1
0	29481	17191.325963751667	0
0	29565	17296.37607963647	1
0	29566	17296.96134489889	0
0	29820	17427.651148447686	1
0	29826	17430.894506234932	0
0	29840	17435.596338735378	1
0	29841	17436.810835800594	0
0	29912	17488.145765292704	1
0	29914	17489.847200733329	0
0	29917	17489.983382104956	1
0	29920	17491.536848228299	2
0	29921	17492.431376628315	1
0	29924	17492.944560763568	0
0	29987	17531.612416093946	1
0	29991	17533.043636441982	0
0	30045	17557.053424542802	1
0	30046	17558.698249373404	0
0	30328	17819.149974631759	1
0	30332	17819.792000930059	0
0	30356	17829.698347643631	1
0	30358	17829.986060898335	0
0	30637	17999.512571867656	1
0	30639	17999.854157969971	0
0	30767	18067.545149216025	1
0	30769	18068.159144671639	0
0	30845	18158.161270952061	1
0	30846	18158.912233852827	0
0	30850	18160.260076884412	1
0	30855	18161.735041323473	2
0	30861	18164.771560742288	1
0	30864	18165.970447003412	0
0	30885	18172.66958866208	1
0	30886	18172.698054970812	0
0	30923	18181.714319061499	1
0	30925	18182.354042129309	0
0	30961	18194.768876476598	1
0	30963	18194.889011060454	0
0	31055	18235.47416188439	1
0	31059	18236.671451245307	0
0	31685	18680.551949021961	1
0	31686	18681.228824759994	0
0	31715	18693.176365639864	1
0	31716	18695.219891406826	0
0	31879	18783.263710013725	1
0	31881	18783.785550788098	0
0	32067	18903.408457044366	1
0	32069	18904.51937755988	0
0	32222	18988.902034889348	1
0	32226	18991.180737411387	0
0	32270	19018.374089779637	1
0	32271	19018.609331505639	0
0	32747	19393.86101328074	1
0	32751	19397.770854616122	0
0	32864	19432.929166453662	1
0	32869	19435.593495422558	0
0	33469	19777.503804176733	1
0	33471	19778.300132576303	0
0	33565	19816.238194534425	1
0	33566	19819.901871512959	0
0	33765	19945.547884975351	1
0	33766	19946.194217339536	0
0	33807	19959.788536712532	1
0	33809	19960.281588894119	0
0	33882	19993.870800235886	1
0	33886	19995.234412457382	0
0	33935	20025.204390263001	1
0	33939	20026.412040227504	0
0	34130	20202.879330121751	1
0	34131	20203.783938372485	0
0	34304	20267.16198032463	1
0	34306	20267.41701785162	0
0	34690	20527.67002941595	1
0	34691	20527.987175074794	0
0	34814	20629.959630254861	1
0	34816	20630.595550931659	0
0	34824	20633.148881986383	1
0	34828	20634.68078903772	0
0	34969	20696.547854638803	1
0	34976	20699.244630152457	0
0	34989	20702.798689891914	1
0	34991	20703.270204799114	0
0	35315	20857.007227411021	1
0	35316	20858.147527057536	0
0	35349	20867.491247424342	1
0	35351	20868.577829317265	0
0	35356	20869.484615439594	1
0	35358	20869.677491000518	0
0	35676	21057.845377751015	1
0	35680	21058.204879091676	0
0	35683	21059.633865486778	1
0	35685	21059.665521909606	0
0	35810	21154.308265627625	1
0	35811	21157.861652557472	0
0	35815	21159.165786096188	1
0	35816	21159.234453685329	0
0	35867	21185.520128646562	1
0	35869	21187.175631862398	0
0	36120	21382.906713379675	1
0	36122	21383.360921388804	0
0	36145	21390.572469169961	1
0	36147	21390.584097579168	0
0	36150	21392.483501333313	1
0	36158	21395.940464888269	2
0	36163	21398.449530105696	1
0	36168	21399.194112021046	0
0	36171	21400.051436592581	1
0	36173	21400.651545124511	0
0	36176	21402.039252469445	1
0	36181	21403.734524270276	2
0	36183	21404.576308338525	1
0	36185	21405.099459758913	0
0	36188	21405.239273483994	1
0	36192	21406.554636648297	0
0	36195	21406.933584481793	1
0	36202	21409.168462839739	0
0	36455	21575.904076268235	1
0	36464	21579.101777761415	0
0	36560	21642.614572311116	1
0	36564	21643.959118468516	0
0	36710	21777.134593547345	1
0	36711	21777.635501204097	0
0	36715	21779.01484323539	1
0	36721	21783.170852135093	0
0	37122	22021.962631798381	1
0	37126	22025.819283605238	0
0	37144	22030.778963416313	1
0	37146	22031.761638009739	0
0	37149	22032.089668652659	1
0	37151	22033.157538751957	0
0	37520	22239.481795732813	1
0	37529	22243.021048231664	0
0	37635	22335.98234018198	1
0	37636	22337.368599271074	0
0	37680	22393.657985509903	1
0	37681	22394.188538993045	0
0	37794	22498.903226526384	1
0	37796	22498.953204626012	0
0	37799	22500.830817437474	1
0	37802	22502.216486212913	2
0	37804	22503.586918515595	1
0	37809	22504.353796919577	0
0	38333	22790.181021346497	1
0	38335	22790.288380119788	0
0	38610	22991.253237608359	1
0	38611	22991.477677296314	0
0	38620	22995.214639560345	1
0	38621	22995.673894594686	0
0	38634	22999.319884495011	1
0	38636	22999.724594117257	0
0	38701	23046.825991365934	1
0	38703	23047.797647455188	0
0	38745	23061.749954566234	1
0	38746	23062.287308521689	0
0	38755	23065.70513620668	1
0	38756	23065.966735147993	0
0	39090	23311.432458984898	1
0	39091	23311.435162980279	0
0	39102	23315.045557753167	1
0	39106	23317.119089562737	0
0	39135	23323.478053463356	1
0	39137	23323.963705425283	0
0	39143	23327.023067317077	1
0	39145	23328.272001690814	0
0	39635	23646.344808417148	1
0	39636	23646.44411461548	0
0	39902	23853.098475581772	1
0	39904	23853.773223762201	0
0	40182	24058.090888535668	1
0	40186	24060.408717548752	0
0	40371	24147.147910912284	1
0	40377	24150.38944312031	2
0	40379	24151.146639307575	1
0	40381	24151.79631442867	0
0	40384	24151.911128750766	1
0	40386	24152.468587798029	0
0	40525	24266.357160848937	1
0	40526	24266.361696425705	0
0	40550	24280.535958529019	1
0	40551	24281.27378423636	0
0	40620	24308.636385661415	1
0	40621	24309.186869521491	0
0	40652	24318.994874520092	1
0	40656	24320.952471745669	0
0	40662	24322.653953111081	1
0	40674	24326.299094318598	0
0	40680	24327.901761644615	1
0	40681	24328.885329693954	0
0	40740	24358.169728559544	1
0	40741	24359.669389781399	0
0	40747	24361.568716892457	1
0	40751	24362.983493169825	0
0	40795	24379.082075197457	1
0	40796	24380.555211804832	0
0	41002	24511.948104981094	1
0	41004	24512.894286938805	0
0	41145	24617.874559618263	1
0	41146	24618.626847074754	0
0	41387	24771.542608480238	1
0	41389	24771.767591489827	0
0	41392	24773.462456868671	1
0	41394	24773.617231887672	0
0	41567	24886.45915922341	1
0	41569	24887.019625328901	0
0	41577	24889.737293364713	1
0	41579	24890.209791387607	0
0	41865	25045.002942369803	1
0	41866	25046.449126938596	0
0	41884	25051.615983714029	1
0	41886	25051.984262100833	0
0	41893	25053.560530807316	1
0	41897	25054.533533383836	0
0	41936	25067.794611657837	1
0	41939	25069.235331327708	2
0	41946	25072.513751909983	1
0	41950	25073.913641295124	2
0	41951	25073.95369459597	1
0	41961	25078.110782313552	0
0	41965	25079.697451013532	1
0	41966	25079.772243425198	0
0	42045	25123.293533809174	1
0	42046	25123.88689894974	0
0	42050	25125.457263840733	1
0	42051	25125.475367173854	0
0	42090	25140.214686353897	1
0	42091	25140.698169192063	0
0	42165	25182.965263028928	1
0	42166	25186.18561146908	0
0	42314	25320.854868695977	1
0	42327	25325.769269621464	2
0	42331	25327.59531076708	1
0	42334	25328.448277996399	0
0	42914	25817.743275573569	1
0	42918	25819.611961973217	0
0	43260	26040.458147730575	1
0	43261	26040.951663346947	0
0	43280	26047.512793239192	1
0	43286	26050.708631876697	0
0	43740	26255.726536608158	1
0	43741	26256.070136240343	0
0	43750	26259.497040372188	1
0	43751	26262.93025945689	0
0	43755	26264.783091733637	1
0	43756	26265.449011474255	0
0	43785	26274.672875162552	1
0	43786	26274.678676309799	0
0	43935	26381.475817154229	1
0	43936	26384.516223693655	0
0	43961	26389.980257696861	1
0	43963	26389.981812122382	0
0	43966	26391.500285074876	1
0	43968	26391.719255761261	0
0	44101	26446.027585551964	1
0	44103	26447.011780103881	0
0	44369	26590.06162044967	1
0	44372	26591.951409210287	2
0	44374	26592.718399698774	1
0	44379	26594.636393293832	0
0	44445	26615.415538230374	1
0	44446	26617.047038086015	0
0	44665	26720.411323037839	1
0	44669	26722.769805801938	0
0	44697	26731.525919173653	1
0	44699	26732.491776853793	0
0	44889	26869.049380756918	1
0	44891	26869.156158474341	0
0	44894	26870.278696978468	1
0	44897	26872.036142005961	2
0	44899	26872.947957370613	1
0	44907	26874.609139879797	2
0	44909	26875.959915121216	1
0	44914	26876.781236020535	0
0	44917	26877.746462276582	1
0	44924	26881.047148035128	0
0	44927	26881.334860679759	1
0	44930	26883.226795873298	2
0	44931	26887.044777773021	1
0	44935	26888.809941218307	2
0	44941	26891.035415134807	1
0	44944	26892.129864984016	2
0	44946	26893.309826593846	1
0	44948	26893.547609645642	0
0	44956	26895.232528915267	1
0	44959	26896.679379986796	2
0	44961	26896.891017032233	1
0	44966	26899.534271385797	0
0	45066	26945.763214923852	1
0	45068	26946.28337653108	0
0	45090	26952.321800775306	1
0	45092	26952.646616932084	0
0	45095	26953.779902474994	1
0	45097	26954.111196069567	0
0	45100	26955.10949318506	1
0	45105	26957.948570572634	0
0	45110	26958.285695391932	1
0	45112	26958.448814230007	0
0	45415	27168.014015590166	1
0	45416	27168.144899359901	0
0	45517	27218.028376702014	1
0	45519	27218.296298019439	0
0	45595	27276.370041906647	1
0	45596	27277.009683755084	0
0	45705	27371.474029313543	1
0	45706	27375.853301317106	0
0	45735	27392.453704340675	1
0	45736	27393.541298012167	0
0	45874	27460.022898347644	1
0	45876	27460.245321748096	0
0	46004	27519.00565120463	1
0	46006	27519.915246631011	0
0	46060	27549.125963614235	1
0	46065	27552.233086792427	2
0	46069	27552.697440110506	1
0	46071	27553.386374318314	0
0	46086	27558.108939727889	1
0	46092	27560.781835310282	2
0	46094	27561.788187023611	1
0	46096	27561.966005358782	0
0	46188	27592.427650630107	1
0	46190	27592.487912755806	0
0	46332	27651.607784177208	1
0	46334	27652.280493449601	0
0	46601	27825.575742748981	1
0	46606	27827.529942727408	0
0	47072	28153.368692359409	1
0	47074	28154.351383603276	0
0	47124	28172.590804588804	1
0	47126	28172.70271185139	0
0	47270	28245.435352573935	1
0	47271	28245.50746846356	0
0	47307	28256.831197323008	1
0	47309	28257.051592600608	0
0	47312	28258.048764846577	1
0	47314	28259.754113493555	0
0	47370	28284.26885093877	1
0	47371	28284.312459243388	0
0	47375	28286.185386261829	1
0	47376	28290.98136251841	0
0	47530	28362.225682476683	1
0	47531	28364.007258086214	0
0	47697	28450.406426174858	1
0	47699	28451.205818989025	0
0	47734	28461.006787045218	1
0	47736	28462.188292468862	0
0	47739	28462.46589518144	1
0	47741	28463.070530904428	0
0	47744	28463.776628022	1
0	47746	28464.455105591578	0
0	48080	28621.228870356107	1
0	48086	28624.764162977438	0
0	48120	28636.045297354113	1
0	48121	28636.289918671948	0
0	48185	28669.82444536654	1
0	48186	28670.493946224317	0
0	48197	28673.629174263827	1
0	48199	28674.692678873472	0
0	48202	28675.148896862059	1
0	48207	28676.409363455004	2
0	48209	28677.541328504952	1
0	48212	28678.10157782068	2
0	48214	28678.601384962549	1
0	48217	28679.443977329186	2
0	48219	28680.826892344758	1
0	48226	28682.311307788668	0
0	48229	28682.53591806428	1
0	48232	28683.888661264679	2
0	48235	28685.840605286746	3
0	48236	28686.130048647977	2
0	48239	28687.457946498102	1
0	48242	28688.08119970829	2
0	48249	28690.329627159912	1
0	48254	28692.869497566647	0
0	48257	28693.275714354671	1
0	48261	28695.031581794505	0
0	48385	28800.536561624861	1
0	48386	28802.26864488869	0
0	48479	28857.277953475096	1
0	48481	28857.984354796855	0
0	48484	28858.893205817916	1
0	48489	28860.877808904624	0
0	48737	28997.895792406805	1
0	48741	29000.124539618163	0
0	48745	29001.688272315978	1
0	48746	29001.905519462784	0
0	48750	29003.426049510797	1
0	48751	29004.070150840792	0
0	48755	29005.474549242246	1
0	48756	29006.946414931836	0
0	49093	29239.346341951086	1
0	49095	29240.037523601968	0
0	49160	29258.90800912202	1
0	49167	29260.46312084641	0
0	49289	29342.792903561872	1
0	49291	29343.259910963604	0
0	49455	29416.722510171181	1
0	49456	29418.29125454044	0
0	49477	29425.643044707831	1
0	49484	29427.799096991966	0
0	49552	29488.912935375803	1
0	49554	29489.723649534057	0
0	49557	29490.784102685944	1
0	49559	29492.0120854353	0
0	49565	29493.931523195663	1
0	49566	29494.947484472559	0
0	49665	29591.077365430699	1
0	49669	29595.111508090453	0
0	49707	29607.3405770025	1
0	49709	29608.424661162872	0
0	50026	29777.187310940126	1
0	50028	29778.102238817416	0
0	50031	29778.503111693176	1
0	50033	29779.682609454096	0
0	50036	29780.015810968267	1
0	50038	29780.261942286218	0
0	50053	29784.563696139033	1
0	50055	29785.26928957845	0
0	50058	29786.246877062793	1
0	50061	29788.068774796936	2
0	50064	29789.474198577839	3
0	50069	29791.506349183581	2
0	50071	29791.581082602458	1
0	50073	29791.897820357977	0
0	50102	29802.065091914969	1
0	50104	29802.708651645105	0
0	50190	29834.83104065435	1
0	50191	29837.490962351093	0
1	0	0	0
1	383	172.755175518184	1
1	385	172.905026370621	0
1	1775	876.082748491487	1
1	1776	877.478776783547	0
1	1785	881.089292915775	1
1	1789	883.581743605282	0
1	1840	900.574803854772	1
1	1841	901.684054501105	0
1	2587	1459.785343880918	1
1	2589	1461.052078601991	0
1	4285	2418.605083660625	1
1	4289	2420.648477762258	0
1	4670	2701.231929027452	1
1	4674	2701.809164407743	0
1	6604	3770.422421914746	1
1	6609	3772.98877608123	0
1	8069	4650.611815771149	1
1	8071	4651.774220100243	0
1	8437	4900.639374651306	1
1	8439	4901.095864762698	0
1	8490	4918.781377169968	1
1	8494	4919.676605701212	0
1	8509	4924.439925479644	1
1	8518	4926.401350623775	0
1	8521	4927.328305646533	1
1	8528	4930.234480109354	0
1	8551	4937.138824489097	1
1	8553	4938.397341040096	0
1	8584	4948.59498827694	1
1	8591	4952.782877680339	0
1	9792	5710.929815198673	1
1	9794	5711.640499825614	0
1	9800	5714.261765130615	1
1	9804	5715.915854159117	0
1	10262	6000.129033389184	1
1	10266	6000.957328404891	0
1	10547	6147.821687553581	1
1	10549	6148.76686173087	0
1	14019	8036.330707370505	1
1	14021	8037.241091643821	0
1	14099	8060.179332754776	1
1	14101	8060.536877485289	0
1	14945	8554.536124431483	1
1	14950	8556.589632371616	2
1	14954	8559.57234105743	1
1	14959	8560.581470866664	0
1	15635	8880.657989764103	1
1	15644	8883.270878194696	2
1	15646	8883.350907872548	1
1	15654	8886.19589924091	2
1	15661	8888.140196943707	3
1	15663	8888.536630297629	2
1	15670	8890.397838082765	1
1	15680	8893.609579926354	0
1	15686	8895.697498022816	1
1	15690	8896.136440715006	0
1	21417	12318.039687625421	1
1	21424	12320.777821256231	0
1	21447	12327.834988187564	1
1	21449	12328.001582890141	0
1	21457	12330.726364207578	1
1	21461	12332.27410845852	0
1	22425	13054.627485932544	1
1	22426	13055.684141725115	0
1	23177	13520.6312564353	1
1	23181	13524.571244308453	0
1	23185	13526.097687739979	1
1	23191	13527.584731310476	0
1	23702	13786.511364853014	1
1	23706	13788.258415168328	0
1	23735	13799.349398313981	1
1	23741	13810.764937084624	0
1	23745	13811.992655402878	1
1	23749	13816.135063973384	0
1	25514	14946.683356814836	1
1	25523	14949.324418876781	0
1	27655	16205.411428828366	1
1	27671	16212.267061399954	0
1	30737	18056.639997550681	1
1	30741	18058.873274757647	0
1	33515	19795.111034092861	1
1	33516	19795.376917672888	0
1	34940	20686.378577945607	1
1	34941	20688.653764065314	0
1	35085	20739.409828887585	1
1	35089	20739.871757754	0
1	35442	20897.734459758221	1
1	35446	20899.888766625669	0
1	36245	21426.513899535255	1
1	36249	21428.809220002785	0
1	37005	21967.903257630228	1
1	37006	21968.416002862306	0
1	37270	22084.061488750344	1
1	37271	22085.255934780993	0
1	38075	22675.493142596564	1
1	38081	22679.979847303974	0
1	38845	23104.911795303313	1
1	38846	23106.411007739656	0
1	44007	26406.583250561186	1
1	44009	26408.118735961734	0
1	44605	26690.114417795997	1
1	44606	26692.07874690322	0
1	44610	26693.368024003969	1
1	44611	26698.114916548407	0
1	46245	27614.147638640744	1
1	46249	27616.708469267637	0
1	46720	27871.273320439795	1
1	46724	27872.308290324179	0
1	47807	28486.84465061624	1
1	47809	28488.358739945057	0
1	47812	28488.477498848293	1
1	47819	28489.974595802952	2
1	47821	28490.41118068822	1
1	47825	28491.621018827555	0
2	0	0	0
2	15	14.49334831256	1
2	17	14.646312076283	2
2	18	15.45303077182	1
2	22	15.712393187006	2
2	23	16.863913049979	1
2	27	17.092062059288	2
2	28	18.612200901342	1
2	31	20.574915576411	0
2	40	22.783041692268	1
2	41	23.415692003089	0
2	65	55.822928326016	1
2	67	57.032919358053	2
2	68	57.409576184735	1
2	72	58.755990996716	2
2	73	58.836437529199	1
2	76	60.088888143435	0
2	100	81.908247372195	1
2	103	82.85115769295	0
2	112	85.66260850408	1
2	113	86.337575111482	0
2	135	95.32528567625	1
2	136	96.800172862909	0
2	140	97.688090821321	1
2	141	98.314196261703	0
2	145	99.79453789449	1
2	146	100.188450611695	0
2	150	100.72354011131	1
2	155	101.864802295282	0
2	162	104.217758962815	1
2	164	104.765438078493	2
2	166	105.028390247749	3
2	168	105.189141960815	4
2	169	105.290744209043	3
2	172	107.001105460651	2
2	175	108.499121420212	1
2	178	109.701046830729	0
2	182	110.647590082904	1
2	184	110.815279982914	2
2	185	111.186792240233	1
2	189	111.462314928065	2
2	191	111.69709981189	3
2	192	112.574823118687	2
2	196	113.871625381305	3
2	197	113.946785675489	2
2	201	114.116302420527	3
2	203	114.622520400953	4
2	204	115.398727175534	3
2	208	115.644671252379	4
2	210	115.908992981466	5
2	212	115.993977601782	6
2	213	117.065140819676	5
2	216	118.684189527236	4
2	219	120.164956107117	3
2	222	121.849418156907	2
2	226	121.875622638782	3
2	227	123.460191461012	2
2	231	124.735447164823	3
2	232	125.143972388409	2
2	236	125.61001314862	3
2	237	126.584669436268	2
2	240	127.804989262796	1
2	244	128.310472749104	2
2	246	128.626334320417	3
2	247	129.270944538093	2
2	251	130.289366311049	3
2	252	131.002668913393	2
2	255	132.436907297685	1
2	259	132.930005134465	2
2	261	133.617550451822	3
2	262	133.688308148771	2
2	267	135.581501463182	1
2	271	136.514755133192	2
2	272	137.563166046828	1
2	278	138.376847836857	2
2	279	139.035195877902	1
2	283	140.080010750282	2
2	284	140.607549177423	1
2	287	142.49130449345	0
2	291	143.067222188081	1
2	292	144.062929138109	0
2	296	145.25845068458	1
2	297	145.888488437176	0
2	301	145.975644101189	1
2	302	147.557306018412	0
2	309	150.197393091635	1
2	310	150.32053599482	0
2	319	153.497316963568	1
2	320	153.60629208175	0
2	324	153.63057521368	1
2	327	154.846674220948	0
2	331	154.990495770957	1
2	334	156.133125243834	0
2	338	156.769712524399	1
2	339	157.594840466915	0
2	343	157.598928950748	1
2	344	159.396837402074	0
2	348	159.521413074729	1
2	350	159.555084801347	2
2	351	161.386348697855	1
2	354	163.06495323082	0
2	358	163.237138420126	1
2	359	164.383049379974	0
2	390	173.510624996447	1
2	391	174.408575460813	0
2	400	177.582349414104	1
2	401	178.053026273786	0
2	405	178.08523414342	1
2	406	179.387708619363	0
2	413	183.03239195393	1
2	414	183.091421864494	0
2	462	199.338651494085	1
2	464	199.525644345425	2
2	467	200.686905497438	1
2	470	201.948549708477	0
2	474	203.146635078515	1
2	475	203.348458694978	0
2	479	203.381654076412	1
2	480	205.21906775081	0
2	484	206.064541558243	1
2	485	206.89830918902	0
2	489	207.475820950927	1
2	490	208.777116535357	0
2	497	210.903661069409	1
2	498	212.001134547344	0
2	502	212.695804904207	1
2	503	213.801506231105	0
2	507	214.660320075839	1
2	508	215.015018403282	0
2	517	216.539006150266	1
2	518	218.104151016039	0
2	550	247.017903791772	1
2	551	248.335958877092	0
2	555	249.262077402853	1
2	556	249.994979861824	0
2	560	250.329823910724	1
2	563	251.719561252443	0
2	570	253.337869925953	1
2	571	254.478016857317	0
2	575	255.787596420112	1
2	576	256.394939443169	0
2	580	257.164831360628	1
2	581	258.286522802224	0
2	585	258.964904384398	1
2	586	259.629393562561	0
2	600	265.189153638497	1
2	601	266.495213316762	0
2	605	267.320135072158	1
2	606	268.411780475461	0
2	620	273.143521888494	1
2	622	273.759980423695	2
2	623	274.179981450895	1
2	627	274.408714578121	2
2	630	275.527682919772	1
2	634	275.944461959461	2
2	635	277.003839562805	1
2	638	278.486817023316	0
2	642	278.914268265113	1
2	643	279.790986453713	0
2	650	282.178640489137	1
2	654	282.362175466562	2
2	655	283.083569728554	1
2	660	284.85085450054	0
2	664	285.466438852969	1
2	665	286.482077857264	0
2	695	320.405078790385	1
2	696	321.451056047592	0
2	715	328.474526860643	1
2	716	330.094087526257	0
2	725	332.42832022868	1
2	726	333.556939326497	0
2	745	357.005820050409	1
2	747	357.233906043816	2
2	748	357.27631484577	1
2	752	357.956544193979	2
2	753	358.843294228143	1
2	757	359.068193481257	2
2	758	360.823144227168	1
2	762	361.123788722013	2
2	763	362.723151464662	1
2	766	364.685266612931	0
2	770	365.669278639238	1
2	771	366.572185828066	0
2	790	376.493380208174	1
2	792	376.494018166387	2
2	793	377.265042183875	1
2	798	378.975470251731	0
2	802	378.988439684224	1
2	803	380.428100783146	0
2	807	381.471113158415	1
2	808	382.197329434893	0
2	822	386.852064983224	1
2	823	387.188256634727	0
2	830	388.907809475322	1
2	831	390.156282270841	0
2	837	391.966586580022	1
2	838	391.983453702695	0
2	850	396.601286160169	1
2	852	396.786406597363	2
2	853	396.789267767046	1
2	856	398.227255045262	0
2	860	398.599977929579	1
2	861	399.980674731185	0
2	865	400.274007689118	1
2	866	401.730567930651	0
2	880	407.860201246056	1
2	881	408.928455929377	0
2	890	410.596894930706	1
2	891	412.005700650358	0
2	895	412.124242935375	1
2	897	412.154856752583	2
2	898	413.8403161117	1
2	901	415.576064524905	0
2	905	416.749663439704	1
2	906	417.101465572336	0
2	910	418.469481404981	1
2	911	418.869426472404	0
2	915	419.062355672991	1
2	916	420.085770443001	0
2	920	421.54952656566	1
2	921	421.926451892697	0
2	955	440.692064376649	1
2	956	440.955504674636	0
2	1010	487.757878257779	1
2	1011	488.205714911168	0
2	1015	488.564032981951	1
2	1016	489.506715903749	0
2	1020	489.739517859479	1
2	1021	491.432750258913	0
2	1065	512.724905813692	1
2	1067	513.122173562955	2
2	1068	513.80331191371	1
2	1071	515.355901560996	0
2	1075	517.012538700948	1
2	1076	517.243855318677	0
2	1100	532.803451680363	1
2	1101	534.15834593596	0
2	1125	547.531515490742	1
2	1127	548.518545092638	2
2	1128	548.549234384377	1
2	1132	548.725488280195	2
2	1133	550.48824034099	1
2	1137	551.407762450886	2
2	1138	552.142788356063	1
2	1141	553.532157058162	0
2	1145	554.359382552579	1
2	1147	554.596355501042	2
2	1149	554.700565572779	3
2	1150	555.350649542068	2
2	1153	557.052939423625	1
2	1156	558.404393026125	0
2	1175	566.112462335901	1
2	1176	567.217750387644	0
2	1180	568.269678200923	1
2	1182	568.331068235522	2
2	1184	568.997823050226	3
2	1185	569.018491710169	2
2	1189	569.178271411165	3
2	1191	569.805276704754	4
2	1192	570.805134473188	3
2	1195	572.344345516531	2
2	1199	572.935090687431	3
2	1200	573.591460725857	2
2	1204	573.72649779796	3
2	1205	574.880684056325	2
2	1209	576.11591801808	3
2	1210	576.432087532809	2
2	1213	578.280834912328	1
2	1216	579.958288841141	0
2	1220	580.130662358119	1
2	1221	581.548809880023	0
2	1225	581.65822798902	1
2	1227	582.195367904141	2
2	1228	583.518280335707	1
2	1231	585.072721525287	0
2	1280	634.773129148795	1
2	1281	634.902727069921	0
2	1290	639.257317061138	1
2	1291	640.34120123393	0
2	1295	641.006642351616	1
2	1296	641.949706285513	0
2	1300	643.401527210411	1
2	1301	643.760331500201	0
2	1305	643.819218689499	1
2	1306	644.961739223144	0
2	1315	650.248587923289	1
2	1316	651.43709012829	0
2	1320	652.170378121689	1
2	1321	652.733633840273	0
2	1337	657.108617019789	1
2	1339	657.263447114744	2
2	1340	658.305462103167	1
2	1343	659.632790438288	0
2	1347	659.96747842979	1
2	1348	661.248849870467	0
2	1352	662.19493585794	1
2	1353	663.132006654718	0
2	1357	663.768679505884	1
2	1358	664.963357687571	0
2	1380	672.929758106557	1
2	1382	673.494380366169	2
2	1383	673.529326222287	1
2	1387	674.791970226535	2
2	1388	675.462351492615	1
2	1391	677.140075565325	0
2	1425	702.28433403499	1
2	1426	703.58055817365	0
2	1435	712.494557094841	1
2	1436	713.523078688445	0
2	1440	713.74987493381	1
2	1441	714.772223551596	0
2	1455	726.599743261448	1
2	1456	726.970858006237	0
2	1485	748.930549406001	1
2	1486	749.476128333595	0
2	1500	771.464101488774	1
2	1501	771.821120303947	0
2	1505	772.115078583941	1
2	1506	773.509463063519	0
2	1515	775.473922662903	1
2	1516	776.158124395185	0
2	1520	776.632284749255	1
2	1522	777.76178912278	2
2	1524	777.797899739836	3
2	1525	777.915826386311	2
2	1528	779.159911123388	1
2	1532	780.255024619564	2
2	1534	780.523767584737	3
2	1535	780.825689447955	2
2	1539	781.493782741582	3
2	1540	782.283942358666	2
2	1543	783.994349101656	1
2	1547	784.865450939305	2
2	1548	785.846851119683	1
2	1552	787.059239019239	2
2	1554	787.426164148094	3
2	1555	787.446213880652	2
2	1559	787.778558740407	3
2	1560	789.05008892613	2
2	1564	789.455564844561	3
2	1565	790.316840677434	2
2	1569	790.399393462871	3
2	1571	790.496886045085	4
2	1572	791.588969616318	3
2	1576	792.016113501509	4
2	1577	793.06827804661	3
2	1581	794.608736663817	4
2	1582	794.642707751604	3
2	1586	795.88240714507	4
2	1587	796.589386403473	3
2	1591	798.07765207843	4
2	1592	798.273757309565	3
2	1595	799.756139185564	2
2	1598	801.677097178162	1
2	1601	803.179272748814	0
2	1615	808.120561813495	1
2	1616	809.271176620828	0
2	1630	817.453385115032	1
2	1632	817.967830671999	2
2	1633	817.986030400508	1
2	1637	818.705387624211	2
2	1638	819.963109274172	1
2	1641	821.958103756384	0
2	1660	834.817389508973	1
2	1661	835.695483748626	0
2	1665	836.937127339405	1
2	1666	837.215653423045	0
2	1680	840.849993647858	1
2	1681	842.65922859559	0
2	1685	843.243955590734	1
2	1686	844.19726690246	0
2	1690	845.222663847847	1
2	1691	845.552629119961	0
2	1700	847.379173651807	1
2	1702	848.051961738528	2
2	1703	848.664493530409	1
2	1707	848.969204835534	2
2	1708	850.366914363557	1
2	1711	851.614340714531	0
2	1720	856.40182557751	1
2	1721	857.020499300416	0
2	1730	860.123727024344	1
2	1732	860.359204368509	2
2	1734	860.631565316592	3
2	1735	860.867319683706	2
2	1739	861.156137774371	3
2	1742	862.644037070287	2
2	1746	864.354912238435	3
2	1747	864.613077603628	2
2	1750	866.251155669031	1
2	1753	867.629446550061	0
2	1757	867.964298295073	1
2	1758	868.898060627257	0
2	1797	885.213089208054	1
2	1798	886.680808425796	0
2	1815	891.269384100535	1
2	1817	891.78878731121	2
2	1819	892.067525076317	3
2	1820	892.793986840607	2
2	1825	894.087964624414	1
2	1830	896.069877061309	0
2	1875	916.249819018964	1
2	1876	917.237875932838	0
2	1910	932.941770339954	1
2	1911	934.027370011588	0
2	1915	934.468396965152	1
2	1917	934.744249238191	2
2	1918	935.513723079828	1
2	1921	937.194284431418	0
2	1945	953.987281419829	1
2	1946	955.541902995277	0
2	2010	1043.477750956561	1
2	2011	1044.999956460524	0
2	2015	1045.007305285211	1
2	2016	1046.220516578335	0
2	2020	1046.983908481895	1
2	2021	1047.903402558755	0
2	2025	1048.068378759864	1
2	2027	1049.191353865681	2
2	2028	1049.901864689816	1
2	2031	1051.451431814064	0
2	2055	1073.283176855479	1
2	2056	1074.444401145279	0
2	2060	1074.835753056115	1
2	2061	1076.350852105505	0
2	2065	1076.45216735974	1
2	2066	1077.901271382458	0
2	2070	1078.147104167838	1
2	2071	1079.250003165304	0
2	2085	1086.661468591543	1
2	2086	1086.996694280056	0
2	2095	1090.956984632622	1
2	2096	1091.982947550789	0
2	2100	1092.08171390652	1
2	2101	1093.703132647537	0
2	2105	1094.681031455672	1
2	2106	1095.257077419088	0
2	2110	1095.612318391815	1
2	2111	1097.031290586554	0
2	2120	1098.464349058098	1
2	2121	1100.031246296558	0
2	2140	1108.806874382322	1
2	2141	1109.177286150045	0
2	2175	1130.873620618241	1
2	2177	1131.559688834314	2
2	2178	1132.120271178597	1
2	2182	1132.312751858285	2
2	2183	1133.773750111909	1
2	2186	1135.049367323966	0
2	2270	1245.67072307555	1
2	2271	1246.256277757778	0
2	2275	1247.106282250163	1
2	2276	1247.702916066802	0
2	2339	1301.826929694259	1
2	2340	1302.099012497489	0
2	2355	1307.970299210605	1
2	2357	1309.270441531223	2
2	2358	1309.292482038076	1
2	2362	1309.740136404066	2
2	2364	1310.463028913761	3
2	2366	1310.789105200563	4
2	2367	1311.165933228332	3
2	2370	1313.008051860939	2
2	2374	1313.396081357764	3
2	2375	1314.62003822052	2
2	2378	1316.130963293138	1
2	2382	1316.247043505914	2
2	2383	1318.068237802061	1
2	2387	1318.300092659014	2
2	2388	1319.947813175852	1
2	2391	1321.454410187202	0
2	2435	1364.407074513699	1
2	2436	1364.702327139091	0
2	2445	1367.140090430928	1
2	2446	1367.9863502831	0
2	2490	1397.880421816214	1
2	2492	1398.545979451559	2
2	2493	1398.717367051797	1
2	2496	1400.494080028007	0
2	2500	1401.690863463646	1
2	2501	1402.491065840306	0
2	2505	1402.521443089526	1
2	2508	1403.990994039992	0
2	2512	1404.032394795941	1
2	2513	1405.701425752672	0
2	2517	1405.757424574156	1
2	2518	1407.077151808585	0
2	2560	1451.118609788387	1
2	2561	1451.910014178407	0
2	2585	1458.374172524459	1
2	2586	1459.785343880918	0
2	2600	1463.162638394639	1
2	2602	1463.692867199476	2
2	2604	1463.89536441787	3
2	2605	1464.082340705361	2
2	2609	1465.474660689116	3
2	2610	1465.998501515727	2
2	2613	1467.953487830761	1
2	2616	1469.749286079559	0
2	2630	1480.907208107262	1
2	2631	1481.999513116246	0
2	2655	1494.954376461736	1
2	2656	1496.418140116013	0
2	2695	1531.746415490702	1
2	2696	1533.10331108136	0
2	2700	1533.81999739271	1
2	2701	1534.864249402787	0
2	2707	1536.229019100641	1
2	2708	1536.670617209505	0
2	2712	1536.83843812369	1
2	2713	1538.385166457612	0
2	2735	1545.330281755165	1
2	2736	1545.74928081386	0
2	2750	1551.356565184392	1
2	2751	1551.498808361128	0
2	2795	1588.107602745723	1
2	2796	1588.828930754391	0
2	2800	1590.11291697722	1
2	2801	1590.170096902539	0
2	2810	1592.045413726464	1
2	2811	1593.509046434471	0
2	2820	1598.662219751913	1
2	2822	1598.825897419572	2
2	2823	1600.386911334955	1
2	2827	1600.988124664437	2
2	2828	1602.051379626729	1
2	2831	1604.01705319129	0
2	2840	1607.070714498572	1
2	2842	1607.4302178068	2
2	2843	1607.534735053343	1
2	2846	1608.756337520045	0
2	2850	1609.120597008233	1
2	2852	1609.761436424823	2
2	2853	1610.591465665151	1
2	2856	1612.272640817736	0
2	2860	1612.354219184161	1
2	2862	1612.846008390841	2
2	2864	1613.376006859699	3
2	2866	1613.485935163945	4
2	2867	1613.604730884482	3
2	2870	1614.894453450416	2
2	2874	1615.922133284894	3
2	2875	1616.137843675663	2
2	2879	1617.299497934266	3
2	2880	1617.500761140448	2
2	2883	1618.775701461111	1
2	2887	1619.803603290854	2
2	2888	1620.756122231607	1
2	2892	1621.9582907255	2
2	2893	1622.644246822905	1
2	2897	1623.36691358505	2
2	2898	1624.638213779155	1
2	2902	1625.807683717206	2
2	2903	1626.053711655486	1
2	2906	1627.717606433604	0
2	2920	1635.885937713196	1
2	2921	1636.649663545407	0
2	2935	1642.184914687264	1
2	2936	1642.876483199948	0
2	2940	1643.214418186561	1
2	2941	1644.562849047424	0
2	2945	1644.587850625188	1
2	2947	1645.079897625571	2
2	2948	1645.934028745459	1
2	2952	1647.048388028568	2
2	2953	1647.425867106596	1
2	2957	1647.76307316876	2
2	2958	1649.095589373277	1
2	2962	1649.577934027227	2
2	2963	1650.418957208858	1
2	2967	1650.871884676821	2
2	2968	1652.278612585195	1
2	2972	1652.809727762954	2
2	2975	1653.707427606002	1
2	2979	1653.911501204545	2
2	2980	1655.606335368395	1
2	2984	1656.295358911982	2
2	2985	1657.332374279775	1
2	2988	1658.950315399297	0
2	3070	1712.679402134769	1
2	3071	1713.658062127751	0
2	3100	1745.948890808472	1
2	3102	1746.224266791729	2
2	3103	1746.82110472699	1
2	3106	1748.224386872401	0
2	3115	1763.022052884685	1
2	3116	1763.936571089073	0
2	3125	1765.773606364026	1
2	3127	1766.558966174395	2
2	3128	1766.640183086588	1
2	3132	1767.893944367497	2
2	3133	1768.447063498466	1
2	3137	1768.723413253481	2
2	3138	1770.318780590861	1
2	3141	1771.813698055117	0
2	3155	1775.684984928014	1
2	3156	1777.047775928313	0
2	3175	1795.149349886136	1
2	3177	1795.446870636718	2
2	3179	1796.05673045091	3
2	3180	1796.548332644481	2
2	3183	1798.194805154059	1
2	3186	1799.687318990048	0
2	3220	1819.955402387898	1
2	3221	1820.412827314677	0
2	3225	1821.22331169929	1
2	3226	1822.201665534878	0
2	3230	1822.367401868966	1
2	3232	1823.81783835804	2
2	3233	1824.079094869325	1
2	3237	1825.724939065264	2
2	3238	1826.069042713435	1
2	3241	1828.007150758111	0
2	3255	1837.136180533357	1
2	3256	1837.843304562208	0
2	3260	1838.0528386448	1
2	3261	1839.697551206139	0
2	3290	1853.221225438075	1
2	3292	1853.294940549896	2
2	3294	1853.319762563015	3
2	3296	1853.579565948161	4
2	3297	1853.969731946854	3
2	3301	1854.43814009848	4
2	3302	1855.436015987588	3
2	3306	1856.267234745563	4
2	3308	1856.508854169117	5
2	3309	1857.408400287671	4
2	3312	1858.639470275125	3
2	3315	1859.851890026784	2
2	3318	1861.748868798098	1
2	3321	1863.398972216255	0
2	3325	1864.440553283372	1
2	3326	1864.627212369635	0
2	3335	1866.887984043987	1
2	3337	1867.857837436677	2
2	3338	1868.116503954284	1
2	3342	1869.715174593557	2
2	3343	1869.976931139246	1
2	3347	1870.355314315815	2
2	3348	1871.75729538554	1
2	3351	1873.299355741941	0
2	3395	1902.937533835257	1
2	3396	1904.383981947629	0
2	3400	1904.9442909709	1
2	3401	1905.977412305055	0
2	3420	1941.568559353063	1
2	3421	1942.000135128184	0
2	3435	1948.783432739804	1
2	3436	1949.455034865973	0
2	3450	1971.156277099706	1
2	3452	1971.686782645546	2
2	3453	1972.312476587597	1
2	3457	1973.870055383749	2
2	3458	1973.978082651946	1
2	3462	1974.589673741334	2
2	3463	1975.24307016332	1
2	3467	1976.720830969766	2
2	3468	1977.131869545321	1
2	3472	1977.744680895904	2
2	3473	1978.921571916643	1
2	3477	1979.566080518724	2
2	3479	1979.941841103847	3
2	3480	1980.906305796209	2
2	3484	1980.930788875471	3
2	3485	1982.721415739621	2
2	3488	1984.652655646692	1
2	3493	1986.567686416696	0
2	3497	1987.183145450871	1
2	3498	1988.331715868156	0
2	3502	1988.814485091413	1
2	3503	1989.926792087335	0
2	3507	1990.137826644399	1
2	3508	1991.130994750675	0
2	3512	1991.752111011127	1
2	3513	1992.416151151177	0
2	3517	1992.584539177438	1
2	3519	1993.392038819575	2
2	3520	1993.792789000947	1
2	3523	1995.105217692744	0
2	3535	1999.502052666577	1
2	3536	2001.173628702475	0
2	3540	2002.163397282517	1
2	3541	2002.592900045676	0
2	3545	2002.769663720511	1
2	3546	2003.982794797508	0
2	3555	2006.980897920794	1
2	3556	2008.133343917892	0
2	3575	2021.6250195037	1
2	3576	2021.847211903925	0
2	3597	2028.100488558653	1
2	3599	2029.584578393392	2
2	3600	2029.686329351374	1
2	3603	2031.364003177368	0
2	3615	2035.973505610005	1
2	3616	2037.238714297649	0
2	3635	2052.969748286348	1
2	3636	2054.033240980093	0
2	3640	2055.225433733362	1
2	3643	2055.793578664397	0
2	3690	2087.768265918872	1
2	3691	2088.912165911786	0
2	3700	2090.961568289494	1
2	3701	2092.080621742375	0
2	3750	2141.131634936921	1
2	3751	2141.893360874083	0
2	3760	2151.252614306525	1
2	3761	2151.688966840865	0
2	3765	2152.590499478723	1
2	3766	2153.372991281735	0
2	3780	2171.18696075286	1
2	3781	2171.516822267067	0
2	3785	2172.413938160438	1
2	3786	2173.014409927395	0
2	3820	2186.667200411128	1
2	3821	2187.584706706997	0
2	3830	2191.115788155052	1
2	3831	2191.607403872107	0
2	3840	2197.405551729862	1
2	3841	2198.309273998681	0
2	3845	2198.662872921418	1
2	3847	2199.642630332906	2
2	3848	2200.251248245742	1
2	3851	2202.219885373358	0
2	3865	2206.316741585002	1
2	3866	2207.444826608315	0
2	3885	2216.108631835518	1
2	3886	2216.278539546253	0
2	3900	2220.781078608508	1
2	3903	2222.454242948208	0
2	3920	2228.309017433739	1
2	3922	2229.202152297777	2
2	3924	2229.295513852313	3
2	3925	2229.495843804587	2
2	3929	2230.289755156537	3
2	3930	2230.96522944044	2
2	3934	2231.996021741145	3
2	3937	2232.243449904543	2
2	3941	2232.581149049556	3
2	3942	2233.687932453637	2
2	3946	2234.233489554376	3
2	3950	2234.967206378387	4
2	3951	2235.391849921604	3
2	3954	2236.805489610655	2
2	3957	2238.232034729009	1
2	3961	2239.506520600019	2
2	3962	2239.916980079149	1
2	3966	2240.362369090123	2
2	3967	2241.32123809695	1
2	3970	2242.755045041216	0
2	3974	2243.190579886212	1
2	3976	2244.407807063152	2
2	3977	2244.670457730775	1
2	3981	2244.969063368395	2
2	3983	2245.13145999592	3
2	3984	2246.384389699583	2
2	3987	2247.658669961763	1
2	3990	2248.96909843642	0
2	3994	2249.016911456258	1
2	3995	2250.444489335788	0
2	3999	2250.920116437303	1
2	4001	2250.963770091237	2
2	4002	2251.894822491107	1
2	4006	2252.478398799462	2
2	4008	2252.925077022758	3
2	4009	2253.817526217138	2
2	4012	2255.298229959195	1
2	4015	2257.222905424943	0
2	4025	2260.976739720791	1
2	4026	2261.577324902227	0
2	4030	2261.706486100646	1
2	4032	2262.140532927477	2
2	4035	2263.258398831783	1
2	4039	2264.194751025276	2
2	4040	2264.896314463353	1
2	4043	2266.868334377891	0
2	4047	2268.278115022449	1
2	4048	2268.618321462123	0
2	4075	2279.842047812561	1
2	4076	2280.47193174261	0
2	4100	2305.143899903619	1
2	4101	2305.690865533246	0
2	4112	2309.215485258391	1
2	4113	2309.465015381561	0
2	4117	2309.520056860592	1
2	4119	2309.52514672138	2
2	4120	2310.680757703618	1
2	4124	2311.257409534714	2
2	4125	2312.635942737558	1
2	4128	2314.365352485129	0
2	4132	2315.754505243775	1
2	4133	2316.203525427902	0
2	4137	2317.407496227994	1
2	4138	2317.641250922518	0
2	4145	2319.916145035814	1
2	4148	2321.01040104943	0
2	4152	2322.067816977775	1
2	4153	2322.562407940427	0
2	4160	2324.559128589273	1
2	4161	2325.738248805688	0
2	4215	2366.45489663918	1
2	4216	2366.522223710146	0
2	4245	2403.002934061098	1
2	4246	2403.169004608204	0
2	4335	2462.405024610235	1
2	4336	2463.545790439602	0
2	4340	2464.031210119699	1
2	4341	2465.07981996065	0
2	4350	2468.377300623703	1
2	4351	2469.239267420745	0
2	4370	2479.228165747079	1
2	4371	2480.220075628073	0
2	4385	2491.089750040853	1
2	4386	2492.013628129038	0
2	4390	2492.154544298738	1
2	4392	2492.651667570344	2
2	4394	2492.854816671976	3
2	4395	2493.791946855123	2
2	4398	2495.067752883333	1
2	4402	2496.370974378535	2
2	4403	2496.486866331781	1
2	4406	2498.026583685475	0
2	4410	2498.278662682315	1
2	4411	2499.480457671108	0
2	4435	2511.389105130362	1
2	4436	2512.583561578809	0
2	4455	2524.673823944813	1
2	4456	2525.529707949976	0
2	4460	2526.830661295671	1
2	4461	2527.465899686883	0
2	4465	2528.113001019832	1
2	4467	2528.726197385744	2
2	4468	2529.453650834593	1
2	4472	2530.775622311361	2
2	4473	2530.929151985603	1
2	4476	2532.411367667834	0
2	4480	2532.477860007752	1
2	4481	2534.12390155978	0
2	4485	2534.177093359397	1
2	4487	2534.346706173784	2
2	4488	2535.792281937967	1
2	4491	2537.685804493907	0
2	4510	2549.130832234199	1
2	4511	2550.009914010956	0
2	4520	2552.251643933746	1
2	4521	2553.376332171475	0
2	4525	2554.803190068642	1
2	4526	2554.843805258562	0
2	4530	2554.978492911252	1
2	4532	2555.144008265856	2
2	4534	2555.263531724115	3
2	4535	2556.147791535248	2
2	4539	2556.643154141873	3
2	4540	2557.49749044462	2
2	4544	2558.033592698505	3
2	4545	2559.324883777116	2
2	4549	2559.971348771712	3
2	4550	2561.091057547953	2
2	4555	2562.892961843152	1
2	4558	2564.706628291708	0
2	4595	2602.801062063092	1
2	4596	2604.612503849947	0
2	4600	2604.622134309749	1
2	4601	2606.471838829898	0
2	4605	2607.689343225757	1
2	4606	2608.013971371622	0
2	4610	2609.594220974359	1
2	4611	2609.878232798771	0
2	4695	2708.51675332513	1
2	4697	2708.630324352847	2
2	4698	2709.591430385716	1
2	4703	2710.807289325937	0
2	4707	2711.892666842265	1
2	4708	2712.082335990413	0
2	4715	2714.346117817267	1
2	4717	2715.43839725857	2
2	4718	2715.671014798178	1
2	4721	2716.970740401677	0
2	4725	2717.923168425955	1
2	4728	2718.912435490756	0
2	4732	2719.411621182488	1
2	4733	2720.123204000412	0
2	4745	2723.62388913249	1
2	4746	2725.445944908662	0
2	4755	2728.375436371407	1
2	4756	2729.182209631485	0
2	4765	2732.975132705854	1
2	4766	2732.995774876973	0
2	4790	2748.802285126421	1
2	4791	2749.785651981961	0
2	4850	2818.570239856368	1
2	4851	2819.939647878018	0
2	4855	2821.40867241581	1
2	4856	2821.836141324845	0
2	4860	2822.496884565525	1
2	4861	2823.621429431681	0
2	4865	2823.6358492954	1
2	4866	2825.221379396376	0
2	4870	2825.469503130702	1
2	4871	2826.841114591305	0
2	4880	2828.579708866359	1
2	4881	2829.60413293602	0
2	4905	2844.385679416918	1
2	4906	2845.409240756278	0
2	4910	2846.170400810873	1
2	4911	2846.637172006537	0
2	4920	2849.506263650158	1
2	4921	2849.647342827451	0
2	4925	2851.057882924843	1
2	4926	2851.39773319373	0
2	4930	2853.325482409006	1
2	4931	2853.342244523858	0
2	4935	2854.277666443746	1
2	4936	2855.003608154786	0
2	4940	2855.441102369853	1
2	4941	2856.488027502877	0
2	4945	2856.630620192579	1
2	4947	2857.929400064287	2
2	4948	2858.425081405697	1
2	4952	2858.715114109092	2
2	4953	2860.131523649489	1
2	4956	2861.377362869774	0
2	4965	2865.272288396651	1
2	4966	2866.647611324753	0
2	4970	2866.826589588994	1
2	4971	2868.633333996388	0
2	4975	2869.00024530716	1
2	4976	2870.498592076155	0
2	4980	2870.583314646418	1
2	4981	2872.00101739716	0
2	4985	2872.662804960219	1
2	4986	2873.295761826339	0
2	5000	2888.026356343512	1
2	5001	2888.554481865076	0
2	5025	2909.530760751116	1
2	5027	2909.761595572935	2
2	5028	2911.092225427179	1
2	5032	2911.447615598892	2
2	5035	2912.538749551772	1
2	5039	2912.557434105414	2
2	5040	2914.122219091839	1
2	5043	2915.424249891004	0
2	5050	2917.00420131974	1
2	5051	2918.457691155373	0
2	5057	2919.654222381406	1
2	5058	2920.161309112421	0
2	5080	2944.702639049774	1
2	5081	2945.94257834157	0
2	5085	2946.286046472762	1
2	5086	2947.178463933748	0
2	5090	2947.420145989985	1
2	5091	2949.117156515588	0
2	5120	2976.569348250649	1
2	5121	2977.153376176732	0
2	5135	2983.507136240438	1
2	5136	2983.877646827733	0
2	5145	2986.695042513433	1
2	5146	2987.58429631935	0
2	5150	2988.253090454206	1
2	5151	2989.080509976573	0
2	5155	2989.288187394554	1
2	5156	2990.77340393243	0
2	5160	2992.008358061992	1
2	5161	2992.445322860494	0
2	5165	2993.090545015919	1
2	5166	2993.967176036812	0
2	5175	2997.30243364694	1
2	5176	2997.469773678505	0
2	5180	2998.198410199385	1
2	5181	2998.678602417209	0
2	5245	3104.751745671576	1
2	5246	3106.435649935877	0
2	5280	3135.766661148604	1
2	5282	3135.901387844479	2
2	5283	3137.356018352832	1
2	5288	3139.082741611216	0
2	5307	3151.581348081484	1
2	5308	3152.062434061273	0
2	5312	3153.524158031057	1
2	5313	3153.866337682708	0
2	5320	3155.81776789845	1
2	5322	3155.997363928566	2
2	5323	3156.756355144112	1
2	5326	3158.278425269416	0
2	5335	3160.929140023341	1
2	5337	3161.726218444647	2
2	5338	3162.153381275589	1
2	5341	3164.010454623791	0
2	5345	3164.422418772355	1
2	5346	3165.576355693879	0
2	5355	3169.421353989928	1
2	5357	3169.538639813836	2
2	5358	3169.816627253167	1
2	5361	3171.228180091031	0
2	5365	3172.195310027434	1
2	5367	3172.646245493373	2
2	5368	3172.967560849287	1
2	5372	3173.516149940028	2
2	5373	3174.800908948057	1
2	5377	3174.831223139691	2
2	5379	3174.944648566944	3
2	5380	3176.114315659688	2
2	5383	3177.42972969892	1
2	5387	3178.155167197521	2
2	5388	3178.965593204038	1
2	5391	3180.890903822468	0
2	5425	3200.636371379163	1
2	5426	3201.40120558664	0
2	5430	3202.523406048754	1
2	5431	3203.021991198694	0
2	5445	3213.640036370441	1
2	5447	3214.067590487983	2
2	5448	3214.572595540391	1
2	5452	3215.306246672401	2
2	5453	3215.945202476861	1
2	5456	3217.248835832024	0
2	5470	3221.637005824658	1
2	5472	3222.476971534965	2
2	5473	3223.45332128948	1
2	5476	3224.735117551334	0
2	5480	3225.204686942858	1
2	5481	3226.122593967452	0
2	5485	3226.222628073104	1
2	5486	3227.468502792179	0
2	5505	3252.322341666029	1
2	5506	3253.544178440983	0
2	5515	3256.266446908643	1
2	5516	3256.368535117793	0
2	5525	3259.675568650841	1
2	5527	3260.102373143865	2
2	5529	3260.201429342415	3
2	5530	3261.583835114038	2
2	5533	3262.827795478946	1
2	5537	3263.020372832652	2
2	5541	3264.253777765119	3
2	5542	3264.549255369103	2
2	5545	3266.147025785653	1
2	5548	3267.499932759872	0
2	5555	3269.277380028279	1
2	5556	3270.279153773433	0
2	5565	3273.630187641791	1
2	5570	3275.000302862973	0
2	5574	3275.222941128715	1
2	5576	3275.38461720022	2
2	5577	3276.719466447123	1
2	5581	3278.084259762001	2
2	5582	3278.221484287121	1
2	5585	3279.568701400646	0
2	5589	3280.503921162239	1
2	5590	3281.282185039707	0
2	5594	3282.812049890653	1
2	5596	3282.958780544976	2
2	5597	3283.035168153644	1
2	5600	3284.830042907633	0
2	5607	3286.879330400236	1
2	5609	3286.986030288535	2
2	5611	3287.152862551355	3
2	5612	3287.752572724819	2
2	5616	3287.804203472184	3
2	5617	3289.377978001386	2
2	5620	3291.127182051949	1
2	5623	3292.991587230786	0
2	5627	3293.673027903473	1
2	5628	3294.21437168274	0
2	5635	3296.272655625577	1
2	5637	3296.880041493051	2
2	5638	3297.292058827951	1
2	5641	3299.116007638759	0
2	5645	3299.920291391541	1
2	5646	3300.415216205864	0
2	5660	3305.439291824524	1
2	5661	3306.040686876441	0
2	5745	3395.258848630815	1
2	5746	3396.688076590104	0
2	5750	3397.252580189843	1
2	5751	3398.644448843515	0
2	5755	3399.171619363986	1
2	5759	3399.829209669262	2
2	5760	3399.954432507335	1
2	5763	3401.876649636878	0
2	5767	3402.018476265718	1
2	5768	3403.266005973062	0
2	5795	3415.209165952336	1
2	5797	3415.225312823642	2
2	5799	3415.642974251623	3
2	5801	3416.346475790707	4
2	5802	3416.755868585671	3
2	5806	3417.423929640233	4
2	5807	3417.993595932129	3
2	5814	3419.387654515806	2
2	5817	3421.357539375763	1
2	5820	3422.700594410192	0
2	5827	3424.504482411944	1
2	5828	3425.99782773916	0
2	5832	3426.723532061632	1
2	5833	3427.404559717778	0
2	5837	3427.688257950169	1
2	5838	3428.879780182134	0
2	5842	3428.899429108379	1
2	5843	3430.465452122207	0
2	5870	3442.580952217055	1
2	5871	3442.586316419645	0
2	5885	3448.576992452741	1
2	5886	3449.742464951333	0
2	5900	3460.157639897012	1
2	5901	3460.733071007021	0
2	5915	3466.225398783771	1
2	5916	3467.170109942747	0
2	5925	3469.873066855322	1
2	5926	3470.667507370772	0
2	5945	3485.843483529621	1
2	5946	3485.908715999731	0
2	5955	3487.510161910557	1
2	5957	3487.993562813538	2
2	5958	3489.337641001117	1
2	5962	3490.36381679811	2
2	5963	3490.92792558558	1
2	5966	3492.386746273746	0
2	5975	3495.08961731573	1
2	5976	3495.346945108489	0
2	5985	3498.355613070546	1
2	5987	3498.881647979468	2
2	5988	3499.17597653339	1
2	5991	3500.462756955385	0
2	5995	3500.535545112639	1
2	5996	3502.014950148336	0
2	6000	3503.506217795573	1
2	6001	3503.570124335721	0
2	6060	3562.03449480502	1
2	6061	3562.61805318212	0
2	6065	3562.92979810681	1
2	6066	3564.561816434281	0
2	6080	3570.56669857301	1
2	6081	3570.693280611894	0
2	6090	3572.271636181812	1
2	6091	3574.12265368849	0
2	6100	3579.041490145473	1
2	6101	3580.91068594753	0
2	6120	3591.307393392974	1
2	6122	3592.243183578282	2
2	6123	3592.673215953935	1
2	6126	3594.31949185722	0
2	6130	3594.373695848583	1
2	6131	3596.13073985253	0
2	6160	3610.244868080032	1
2	6161	3611.444133170164	0
2	6165	3611.840434853765	1
2	6166	3613.314820717118	0
2	6170	3613.635201857962	1
2	6171	3614.923727638117	0
2	6175	3615.782375892051	1
2	6176	3616.620282560057	0
2	6180	3617.048626357141	1
2	6182	3617.146069181563	2
2	6183	3617.891448733612	1
2	6186	3619.106932140171	0
2	6190	3619.536736393729	1
2	6191	3620.902403017163	0
2	6195	3621.235231111522	1
2	6196	3622.558577281452	0
2	6200	3622.734026439026	1
2	6202	3623.597878514077	2
2	6203	3624.544781145669	1
2	6206	3626.039743117831	0
2	6245	3653.67369545566	1
2	6246	3654.708191406743	0
2	6255	3657.598172121849	1
2	6256	3658.953145254599	0
2	6260	3659.627296998784	1
2	6262	3660.180006569091	2
2	6263	3660.340576851377	1
2	6267	3660.89421781067	2
2	6268	3661.561435566293	1
2	6272	3662.58545389848	2
2	6273	3663.038283707024	1
2	6276	3664.303436017418	0
2	6280	3664.352936208779	1
2	6283	3665.847471150206	0
2	6287	3667.011340988759	1
2	6289	3667.263228487081	2
2	6290	3667.727971608387	1
2	6294	3668.283579862483	2
2	6297	3669.517879123436	1
2	6301	3670.102037823308	2
2	6302	3670.723951159799	1
2	6305	3672.004133502217	0
2	6309	3672.050552273998	1
2	6311	3672.790494409146	2
2	6313	3672.984085164376	3
2	6314	3673.834878618652	2
2	6317	3675.129901739219	1
2	6321	3675.769590986924	2
2	6322	3676.818900743509	1
2	6325	3678.057901761877	0
2	6332	3680.141426600725	1
2	6334	3680.384261943589	2
2	6335	3681.654146489511	1
2	6340	3683.485749742958	0
2	6350	3686.952849988143	1
2	6351	3687.587827742111	0
2	6355	3688.927635841162	1
2	6356	3689.084122826915	0
2	6370	3693.589963760033	1
2	6371	3694.097767580379	0
2	6390	3702.771522195611	1
2	6391	3702.829468616317	0
2	6397	3704.081077542896	1
2	6398	3704.793198639001	0
2	6402	3705.375418955165	1
2	6404	3705.747014208652	2
2	6405	3706.4876025705	1
2	6409	3707.716505098614	2
2	6410	3708.001288670707	1
2	6414	3709.039250266682	2
2	6415	3709.280117533575	1
2	6418	3711.175496424395	0
2	6422	3711.707624244814	1
2	6423	3712.816699854131	0
2	6427	3713.32202211384	1
2	6428	3714.269313836689	0
2	6432	3715.967062364995	1
2	6433	3716.237817013482	0
2	6439	3717.235371700039	1
2	6440	3717.920257465015	0
2	6444	3718.358527675947	1
2	6446	3719.194205342651	2
2	6447	3719.913861570353	1
2	6451	3721.018912222384	2
2	6452	3721.397154891523	1
2	6456	3721.82492990611	2
2	6457	3723.218185863676	1
2	6461	3723.835628937901	2
2	6462	3725.183151330645	1
2	6466	3725.538686766073	2
2	6467	3726.738111248459	1
2	6472	3728.090059877034	0
2	6476	3728.908847005727	1
2	6477	3729.729877069253	0
2	6484	3732.070347678892	1
2	6486	3732.795007800812	2
2	6487	3733.182183211889	1
2	6492	3734.633773982372	0
2	6496	3735.001491388183	1
2	6497	3736.228726615045	0
2	6501	3736.544531901016	1
2	6502	3738.045946358364	0
2	6509	3739.739794409788	1
2	6511	3740.495749856645	2
2	6512	3741.51957395881	1
2	6516	3741.787549511937	2
2	6519	3742.87216785274	1
2	6524	3744.158833890069	0
2	6528	3744.174640373935	1
2	6530	3744.642340654132	2
2	6531	3745.868930754285	1
2	6535	3745.985122875392	2
2	6538	3747.446060804125	1
2	6541	3748.752083254453	0
2	6545	3748.942785322843	1
2	6547	3748.975032973973	2
2	6548	3750.365778065134	1
2	6552	3751.003593190239	2
2	6554	3751.594009561434	3
2	6555	3752.046155485731	2
2	6559	3752.978800360385	3
2	6560	3753.48163423374	2
2	6564	3754.515024970925	3
2	6565	3755.305178519373	2
2	6568	3756.589059888606	1
2	6572	3757.33033943739	2
2	6573	3758.101609719765	1
2	6577	3758.300736203001	2
2	6578	3759.986838377301	1
2	6581	3761.972845843096	0
2	6585	3762.580465359121	1
2	6586	3763.232022603822	0
2	6627	3777.862085676328	1
2	6628	3778.387705227418	0
2	6632	3778.391223524	1
2	6633	3779.876520114077	0
2	6637	3780.44632129577	1
2	6638	3781.512753360031	0
2	6642	3781.865201231991	1
2	6645	3783.1807370911	0
2	6649	3783.91333785404	1
2	6650	3784.466794137156	0
2	6654	3784.48285709518	1
2	6655	3786.161805423966	0
2	6665	3791.484175272578	1
2	6667	3791.833178927012	2
2	6669	3791.884633958233	3
2	6670	3791.899030129856	2
2	6674	3792.014602275282	3
2	6679	3793.474568668066	2
2	6682	3794.935508020839	1
2	6686	3794.968200187547	2
2	6687	3796.771320038719	1
2	6691	3796.967418759086	2
2	6693	3797.646591269692	3
2	6694	3798.330007624498	2
2	6697	3799.988326513453	1
2	6701	3800.344868404408	2
2	6703	3801.294093969708	3
2	6704	3801.854837652727	2
2	6708	3802.054272908279	3
2	6709	3803.493871548644	2
2	6713	3804.191175716944	3
2	6714	3804.830178464076	2
2	6717	3806.07979531443	1
2	6720	3808.072301808244	0
2	6724	3808.88403143689	1
2	6725	3809.711147467664	0
2	6735	3813.626911412396	1
2	6736	3813.874020898774	0
2	6745	3817.289633177649	1
2	6746	3817.79180419214	0
2	6760	3823.061510513937	1
2	6761	3823.873477520843	0
2	6785	3850.736039901375	1
2	6786	3851.33873222016	0
2	6790	3852.649006288541	1
2	6791	3852.809074766489	0
2	6800	3855.296936251297	1
2	6801	3856.851380112661	0
2	6815	3862.457459770791	1
2	6816	3863.230594137755	0
2	6820	3863.540266054947	1
2	6821	3864.857357790206	0
2	6825	3865.397681051797	1
2	6826	3866.11265901744	0
2	6830	3866.642148686032	1
2	6831	3867.82096122082	0
2	6850	3876.478690013145	1
2	6851	3876.797858061739	0
2	6870	3884.91065472126	1
2	6871	3886.14551518458	0
2	6875	3887.460283224854	1
2	6876	3887.492293571225	0
2	6880	3887.561723547498	1
2	6881	3889.176358537293	0
2	6935	3915.785482347926	1
2	6936	3915.996122422488	0
2	6945	3920.678450637128	1
2	6948	3921.001766560149	0
2	6965	3928.592572693877	1
2	6966	3928.619031209643	0
2	6975	3930.843651284427	1
2	6976	3931.750653046142	0
2	6985	3935.219486451023	1
2	6986	3935.610560395838	0
2	7020	3950.286875654046	1
2	7021	3951.823587467788	0
2	7030	3955.059789732958	1
2	7031	3955.284819880953	0
2	7080	4065.789200584522	1
2	7081	4066.022540413945	0
2	7095	4073.880964747595	1
2	7096	4074.269120421483	0
2	7100	4074.533246869924	1
2	7101	4076.073789322599	0
2	7105	4077.409295104852	1
2	7107	4077.915584178514	2
2	7108	4077.948779895193	1
2	7112	4078.325250036893	2
2	7114	4079.20537538075	3
2	7115	4079.746221872642	2
2	7118	4081.717425612211	1
2	7122	4082.258240327438	2
2	7123	4083.322436206452	1
2	7127	4083.534517036449	2
2	7129	4083.667197380521	3
2	7131	4084.996408471204	4
2	7132	4085.227075785808	3
2	7135	4086.705453337952	2
2	7139	4087.323366258932	3
2	7140	4088.644262466616	2
2	7143	4090.391470919213	1
2	7146	4091.637172099798	0
2	7155	4094.246308102291	1
2	7158	4096.031180646378	0
2	7162	4097.234477707864	1
2	7163	4097.913191266838	0
2	7167	4099.307365146361	1
2	7168	4099.734758263748	0
2	7175	4102.882056101982	1
2	7176	4103.447932528068	0
2	7180	4104.336509836813	1
2	7181	4104.992025235963	0
2	7185	4106.358902439935	1
2	7186	4106.707575821427	0
2	7195	4110.237008091967	1
2	7196	4110.491733141545	0
2	7205	4113.182240834907	1
2	7206	4114.591689484707	0
2	7210	4114.742689916943	1
2	7211	4116.447355426243	0
2	7215	4117.65690978662	1
2	7216	4118.292380646756	0
2	7220	4119.190733880529	1
2	7221	4120.263394240988	0
2	7225	4121.323151458255	1
2	7226	4121.517793700797	0
2	7230	4121.727577753467	1
2	7231	4123.444558902783	0
2	7240	4128.7785086217	1
2	7241	4128.838301553379	0
2	7245	4128.966993782384	1
2	7247	4129.646217365012	2
2	7248	4130.444974518183	1
2	7252	4130.901381541889	2
2	7253	4132.355455529678	1
2	7257	4133.229309298278	2
2	7258	4133.793011434737	1
2	7261	4135.368700960267	0
2	7265	4137.102753101338	1
2	7266	4137.173469023022	0
2	7305	4192.957463487278	1
2	7306	4192.984459409302	0
2	7315	4196.69905522317	1
2	7316	4196.787537607452	0
2	7375	4247.232848926563	1
2	7376	4248.929160702853	0
2	7380	4249.259846269568	1
2	7381	4250.154608952506	0
2	7385	4250.958012490033	1
2	7387	4251.052677794547	2
2	7390	4251.973528194866	1
2	7393	4253.728796678847	0
2	7397	4253.935109921631	1
2	7398	4255.495511014639	0
2	7410	4261.203820293778	1
2	7411	4261.382085854557	0
2	7415	4261.810513810857	1
2	7416	4263.102232259881	0
2	7455	4313.532701044159	1
2	7457	4313.676356158631	2
2	7458	4314.025373632139	1
2	7462	4314.278896186479	2
2	7463	4315.687285945243	1
2	7467	4315.739072825712	2
2	7470	4317.304840773768	1
2	7474	4317.891308602134	2
2	7475	4318.521598591707	1
2	7478	4319.972342944942	0
2	7520	4352.491263541942	1
2	7523	4353.847699156167	0
2	7555	4373.422600990886	1
2	7557	4374.267232932985	2
2	7558	4374.686367260988	1
2	7562	4374.707708675871	2
2	7563	4376.284496583182	1
2	7566	4378.030737714793	0
2	7575	4380.852375808098	1
2	7577	4380.959178299645	2
2	7578	4382.114825735313	1
2	7582	4383.42266859416	2
2	7583	4383.740120033992	1
2	7587	4384.645978633066	2
2	7588	4385.010613738445	1
2	7592	4385.929366235106	2
2	7593	4386.76740954153	1
2	7596	4388.287652405237	0
2	7600	4388.735653212916	1
2	7602	4388.756550061196	2
2	7603	4389.899851688256	1
2	7607	4391.266548266157	2
2	7608	4391.312212626149	1
2	7611	4392.984246722681	0
2	7630	4411.225201662931	1
2	7631	4412.730959457616	0
2	7635	4413.100535205868	1
2	7636	4414.633769881065	0
2	7640	4414.710282384477	1
2	7641	4416.353489703956	0
2	7645	4417.086017528113	1
2	7646	4418.125170315142	0
2	7655	4420.93541427213	1
2	7657	4422.02017868895	2
2	7658	4422.163670518444	1
2	7662	4423.280611609249	2
2	7663	4423.67520787605	1
2	7667	4423.681896361977	2
2	7670	4425.042211557747	1
2	7673	4426.414254997493	0
2	7715	4469.163535520231	1
2	7716	4470.131836041505	0
2	7722	4470.745606505446	1
2	7723	4471.862456914293	0
2	7765	4498.566425751285	1
2	7766	4498.706622799593	0
2	7795	4529.55934773399	1
2	7796	4530.665308045388	0
2	7810	4534.069154771613	1
2	7811	4535.356438975199	0
2	7860	4575.37546794553	1
2	7861	4575.546476498335	0
2	7875	4581.488225609421	1
2	7876	4582.932365509594	0
2	7895	4595.903514340601	1
2	7896	4596.172417019183	0
2	7905	4598.660525672051	1
2	7908	4599.493399381699	0
2	7915	4601.069789500148	1
2	7917	4602.107726615416	2
2	7918	4602.643654552909	1
2	7924	4603.458716320419	2
2	7925	4604.196650994258	1
2	7929	4604.568252874729	2
2	7931	4604.971062677087	3
2	7932	4606.03273243575	2
2	7936	4606.842879824763	3
2	7938	4607.000010259688	4
2	7939	4607.271974907505	3
2	7943	4608.124363854675	4
2	7944	4608.936069321322	3
2	7947	4610.151812328833	2
2	7952	4611.933569681148	1
2	7956	4612.523723023436	2
2	7957	4613.275525321129	1
2	7961	4613.493471315368	2
2	7963	4614.496957949898	3
2	7964	4615.004357937413	2
2	7968	4615.263060143591	3
2	7970	4616.413755762537	4
2	7971	4616.45076919465	3
2	7974	4617.654161050233	2
2	7977	4619.200751172255	1
2	7983	4619.976107574841	2
2	7984	4621.149968517075	1
2	7988	4621.411803369974	2
2	7989	4622.745078112433	1
2	7993	4622.932361046819	2
2	7994	4624.26203699174	1
2	7997	4625.901620495567	0
2	8004	4627.706910096574	1
2	8005	4629.273446963789	0
2	8014	4631.715116443281	1
2	8015	4632.407370691622	0
2	8024	4633.839587239238	1
2	8026	4635.074337896236	2
2	8027	4635.797013671758	1
2	8032	4637.587600317659	0
2	8039	4640.407937055617	1
2	8040	4641.113740365641	0
2	8049	4642.894771893254	1
2	8051	4642.971269222332	2
2	8052	4644.05090380224	1
2	8057	4645.660440550433	0
2	8067	4650.439954349406	1
2	8068	4650.611815771149	0
2	8090	4658.544483255031	1
2	8091	4659.192562185102	0
2	8105	4662.935261974486	1
2	8106	4663.775038966958	0
2	8115	4665.218680295211	1
2	8116	4666.587365766291	0
2	8122	4667.656283611679	1
2	8123	4668.418987529401	0
2	8127	4668.493655374801	1
2	8128	4670.03418468931	0
2	8132	4670.469585151168	1
2	8133	4671.495427261528	0
2	8137	4672.113116545587	1
2	8138	4673.329495460216	0
2	8142	4673.601546592488	1
2	8143	4674.920996959742	0
2	8147	4675.679577353742	1
2	8148	4676.766489161786	0
2	8155	4679.580685097551	1
2	8156	4680.682172333125	0
2	8160	4681.072045154109	1
2	8161	4682.498581518095	0
2	8170	4686.266118317618	1
2	8171	4686.308886907028	0
2	8225	4745.044563413194	1
2	8226	4746.57289305342	0
2	8240	4781.942279164519	1
2	8241	4782.322974296246	0
2	8245	4783.546379838897	1
2	8249	4783.761780599395	2
2	8250	4783.897995618876	1
2	8253	4785.442754456732	0
2	8260	4788.702814926234	1
2	8261	4789.019670565571	0
2	8270	4791.04637520955	1
2	8271	4791.916262162249	0
2	8325	4828.474195187437	1
2	8326	4828.896937557849	0
2	8330	4829.031946289602	1
2	8334	4829.759999380824	2
2	8335	4830.701759154144	1
2	8338	4832.609400056656	0
2	8342	4833.05313264411	1
2	8344	4834.3764514852	2
2	8345	4834.542766720783	1
2	8349	4835.755540224833	2
2	8350	4836.177995460276	1
2	8353	4837.921226758864	0
2	8357	4837.929721614403	1
2	8358	4839.63299358597	0
2	8362	4839.69924209925	1
2	8363	4841.334199594129	0
2	8367	4842.755986732676	1
2	8368	4843.270041606557	0
2	8385	4867.697354653947	1
2	8386	4867.841461097065	0
2	8390	4868.034190970969	1
2	8392	4868.116374667028	2
2	8393	4869.491252280015	1
2	8397	4870.136323270209	2
2	8398	4871.064872701827	1
2	8401	4872.507106487069	0
2	8405	4873.115621892647	1
2	8406	4873.911004256446	0
2	8435	4899.435500318249	1
2	8436	4900.639374651306	0
2	8447	4902.578608265138	1
2	8450	4903.930853751779	0
2	8454	4905.686651676497	1
2	8455	4905.898237123818	0
2	8462	4908.440376139359	1
2	8463	4908.961537139223	0
2	8472	4910.788621912209	1
2	8474	4911.163442787487	2
2	8475	4911.941205569089	1
2	8480	4913.931107630872	0
2	8507	4923.681428554581	1
2	8508	4924.439925479644	0
2	8515	4926.174914082886	1
2	8520	4927.328305646533	0
2	8527	4928.892121898419	1
2	8530	4930.440917742381	0
2	8534	4931.825558289013	1
2	8535	4931.881000566239	0
2	8547	4936.341038132299	1
2	8549	4936.416059760733	2
2	8550	4937.138824489097	1
2	8555	4938.676818190272	0
2	8559	4938.889184350724	1
2	8560	4940.529225770514	0
2	8567	4943.068401809896	1
2	8570	4944.082375512216	0
2	8582	4947.29151710162	1
2	8583	4948.59498827694	0
2	8615	4965.057799506133	1
2	8618	4965.535601443041	0
2	8629	4967.771277725174	1
2	8630	4969.28389349113	0
2	8642	4973.738275783525	1
2	8643	4973.872620969813	0
2	8650	4976.313222700008	1
2	8651	4977.562906292628	0
2	8662	4979.111280967142	1
2	8663	4980.181878500048	0
2	8670	4982.658437848159	1
2	8672	4982.680024877723	2
2	8673	4983.332709054824	1
2	8676	4984.620192849625	0
2	8680	4985.204556563384	1
2	8681	4986.516780032579	0
2	8695	4993.36070947995	1
2	8696	4993.661995962675	0
2	8700	4993.967516366089	1
2	8701	4994.985482525866	0
2	8705	4996.14395731885	1
2	8706	4996.769045718986	0
2	8712	4997.056818011884	1
2	8714	4997.468578316568	2
2	8715	4998.339462167996	1
2	8719	4999.339635638724	2
2	8720	4999.706257145333	1
2	8723	5001.197519108693	0
2	8735	5004.77584069525	1
2	8736	5006.224966330626	0
2	8760	5014.493482745912	1
2	8761	5014.744792647145	0
2	8765	5015.589930157953	1
2	8766	5016.073934452093	0
2	8780	5038.888631808775	1
2	8781	5038.989711995929	0
2	8790	5041.992020131456	1
2	8792	5042.295997020362	2
2	8793	5042.708459441298	1
2	8796	5044.405690827155	0
2	8810	5056.888181310041	1
2	8811	5057.603750121707	0
2	8820	5062.358222492321	1
2	8821	5062.509621239491	0
2	8827	5063.151918564609	1
2	8828	5063.712288304828	0
2	8835	5065.40001547021	1
[...]
6	27362	16039.973430849039	1.499267375469
6	27492	16124.289480553	30.069588061364
6	27625	16181.075982251535	18.786788510783
6	27702	16221.959557025979	3.389411405269
6	27712	16225.010263769242	24.684226271623
6	27735	16234.77253159473	43.869809139607
6	27797	16260.792840584138	1.816225743107
6	27800	16262.52468290306	7.634823654662
6	27840	16287.296019130296	19.295188720942
6	27919	16328.370882232765	9.863301290699
6	27932	16332.734445598067	2.75609444587
6	27935	16333.950964947322	22.2926665371
6	27950	16348.277971065612	6.70777098157
6	28024	16395.177642067536	3.136797564375
6	28121	16432.901836213367	12.486815839701
6	28124	16434.710307957875	23.084022871476
6	28127	16436.476466896283	10.645637214415
6	28200	16460.300745596414	52.357848761724
6	28210	16466.823745377764	1.907390606047
6	28282	16502.170204627619	5.270085616765
6	28292	16505.879532109865	3.454337818825
6	28409	16547.337337701167	13.895779223757
6	28432	16558.451302682861	21.68037973555
6	28435	16559.76652611687	3.00694890193
6	28600	16653.746642263468	1.91806799341
6	28702	16692.244963175396	28.436602814223
6	28767	16734.626532761669	7.810673911288
6	28780	16739.236082613873	6.083825791667
6	28830	16769.914962565136	4.091579005124
6	28867	16787.834468224138	13.638401460312
6	28875	16791.378547214175	1.708438789099
6	29142	16964.005171602941	4.314029369065
6	29190	16991.078145886846	2.270739425491
6	29240	17025.005158794578	6.619710484527
6	29305	17059.097033107103	11.265698110054
6	29365	17117.421930708666	9.803889965266
6	29405	17141.084960425599	7.612963403575
6	29415	17144.862025663183	19.232730904687
6	29525	17231.433458709469	1.469316590502
6	29540	17242.045572931562	4.96116515021
6	29662	17354.167652372795	8.420395094637
6	29687	17363.533175566123	30.88786441432
6	29764	17407.760546294332	3.30860709857
6	29817	17425.735908129172	18.710764742102
6	29829	17431.070967315739	1.6720480619
6	29870	17448.577270777948	1.709217610769
6	29877	17453.464914233209	1.57058972083
6	29880	17455.381737382309	2.278231022566
6	29895	17466.71317875283	1.535644703172
6	29940	17511.905230093236	1.235953730345
6	30017	17545.066041780083	1.987167163307
6	30070	17582.805457621014	1.452925348282
6	30095	17632.730826671915	1.728658047505
6	30144	17712.313240212427	1.32295679152
6	30167	17719.54614055738	3.099726586207
6	30185	17726.55138853159	14.111477431615
6	30284	17791.247622163919	11.420082820579
6	30377	17837.84768807968	20.389787399838
6	30390	17845.065501815299	24.314439791727
6	30405	17871.398447908028	1.458417562768
6	30420	17879.375380960197	16.549708272461
6	30502	17941.367049518926	3.602839916386
6	30574	17966.196341093373	9.236036061604
6	30600	17981.429077358325	21.348608319303
6	30721	18049.633752426155	14.952201291683
6	30745	18060.122062216074	14.824899307736
6	30774	18068.863247241049	19.336864230925
6	30805	18094.772754689149	5.911101233803
6	30820	18135.202631975346	1.540774569288
6	30860	18164.288529838721	1.738484391384
6	30979	18200.922030791095	27.14086490579
6	30994	18205.360342117227	12.561742816866
6	31064	18237.118357350187	1.47142526973
6	31114	18259.669743651676	16.490336386462
6	31139	18266.895103076811	11.574595748005
6	31190	18295.626629265579	7.836770411946
6	31220	18320.455040177076	6.506538606619
6	31254	18332.089025791569	9.724726107473
6	31302	18352.919554238469	28.587891862205
6	31360	18393.051103842267	9.405025340714
6	31390	18423.531043956551	1.412529701553
6	31440	18455.569620364449	4.543557335052
6	31507	18537.34244552702	3.340258019955
6	31577	18593.951061987961	10.657580335521
6	31580	18595.250990585881	3.042105366534
6	31617	18637.743001892842	3.414672913846
6	31637	18645.100558104372	5.138994034562
6	31662	18654.493018893467	1.583734744042
6	31675	18677.441846042777	3.175509885445
6	31765	18716.600466578671	3.033911950267
6	31785	18731.542578506796	1.936288158037
6	31815	18752.311217096642	1.971069213189
6	31927	18799.776777103863	25.033195688632
6	32105	18917.430122004426	11.116518842707
6	32362	19075.614896156481	3.263537203515
6	32392	19105.681924326133	3.010028084234
6	32407	19111.831606426682	1.846438670345
6	32475	19181.13664634755	1.226589787193
6	32525	19228.217583005364	1.678700950369
6	32605	19296.342631150368	1.554667648673
6	32650	19324.635212997612	1.825457130295
6	32680	19344.377181403899	12.958299039106
6	32720	19382.401805038515	6.93412292209
6	32732	19388.984463929939	1.776948948763
6	32750	19395.486381393811	12.57604156644
6	32872	19435.985339125949	23.380422910401
6	32945	19471.783440719514	8.34904466291
6	32957	19477.779727012265	2.558197399062
6	32985	19489.947778754762	5.474409572314
6	33047	19528.685704718583	1.716864829883
6	33050	19530.661393304222	2.278855639898
6	33107	19561.614648237279	7.749171197032
6	33164	19580.249865438262	18.551924481087
6	33212	19608.170448176083	1.66359619163
6	33217	19609.467125032362	2.598298847273
6	33225	19612.013469050344	1.471455301463
6	33240	19622.127018471384	2.599546164204
6	33309	19686.865288504823	8.655972938197
6	33315	19689.934913555956	10.349134185097
6	33360	19709.086602175588	10.332908894383
6	33410	19734.693719457993	3.543539181584
6	33455	19766.312788991313	6.122525062087
6	33512	19793.36422717757	1.450931390002
6	33522	19797.323483002358	11.727193287051
6	33535	19803.289910833311	11.028008607095
6	33595	19833.412874045376	1.881876915507
6	33602	19837.458349440936	1.910811411217
6	33675	19886.509128657119	2.244893067609
6	33737	19916.09729488832	7.461062556325
6	33745	19926.468283779063	1.645713819191
6	33755	19940.839933762937	1.956068492681
6	33812	19961.681521864426	13.503694099344
6	33920	20011.104797363982	30.873390428062
6	33990	20057.38431087412	1.47401489839
6	34027	20087.32567322436	2.8408873064
6	34032	20088.845704817727	4.116318727278
6	34072	20144.501524168414	1.683466322534
6	34075	20145.720482232583	2.021201691628
6	34122	20199.849526669111	2.265197879293
6	34313	20268.972217959185	36.360925120453
6	34334	20276.547941232119	32.102543653397
6	34397	20298.486058622229	30.098886193655
6	34402	20299.998096952218	9.383744870876
6	34442	20349.61215916772	7.199817219453
6	34450	20354.049261182744	4.513338742616
6	34530	20417.329594523818	24.079005514263
6	34591	20452.667778153255	5.029814501947
6	34610	20460.666898629532	1.598957677372
6	34620	20466.199019288247	2.046586844387
6	34831	20635.139964955318	11.848599021688
6	34887	20656.267625307814	34.286891568557
6	34890	20657.716598944329	3.354941046533
6	34947	20690.555124077346	23.412474858183
6	35014	20711.618113417881	26.675474103458
6	35017	20713.118898738506	22.053916154815
6	35099	20742.909334370702	33.530900765372
6	35102	20744.212069652251	12.698187016129
6	35125	20753.370595452556	3.368090322965
6	35137	20757.270624453407	14.771344928081
6	35185	20774.77090466428	11.990802909029
6	35247	20820.365522153183	13.035024305258
6	35267	20827.397436341291	10.674613380386
6	35394	20881.930483980521	13.215683207063
6	35436	20894.359184264249	9.237689259338
6	35445	20899.695748505599	24.44989197856
6	35464	20903.914107201021	16.122327132374
6	35479	20908.333244296122	22.885310010852
6	35555	20963.174193321608	14.015191518147
6	35560	20970.298149126564	1.533225573413
6	35590	20982.966679869343	7.221567594673
6	35595	20984.568014171433	1.513727631047
6	35600	20993.065129758613	1.639957516268
6	35605	21005.48857077707	1.931118803844
6	35610	21009.841746924524	1.335680928454
6	35630	21041.932066515442	1.839009013027
6	35710	21070.840572849422	18.189334116832
6	35725	21078.109539954509	1.331938038021
6	35740	21095.486711198838	1.700658779033
6	35745	21105.985531069401	1.673881114833
6	35772	21131.582762118105	4.964307639189
6	35872	21187.348725812951	4.690944420942
6	35942	21253.00467323914	7.422770568832
6	35990	21315.582583328619	4.84917974393
6	36005	21330.188428610483	1.917568042688
6	36039	21346.443649330771	8.593734336107
6	36050	21354.728456001792	1.465678381734
6	36076	21366.350208730299	2.616814086628
6	36082	21369.957355642181	5.394529112489
6	36161	21397.202788193839	16.844796426242
6	36166	21398.474007206539	37.112813094579
6	36239	21423.091166867444	41.504728330212
6	36254	21430.201037763538	1.630500345305
6	36257	21431.442861390593	46.523119504634
6	36264	21433.37761493429	15.616833785973
6	36285	21441.674096941309	7.417722262128
6	36290	21458.800266130499	1.340810874477
6	36305	21465.036377653783	6.163786880524
6	36460	21578.704912770526	16.486663417516
6	36467	21580.872489187264	1.957664429769
6	36515	21597.34521216266	9.716937387095
6	36742	21792.269814877028	11.220945047593
6	36765	21807.19675324706	1.69123383183
6	36777	21816.412713240458	3.90467324838
6	36835	21857.277804446704	13.361494117064
6	36915	21921.456042913548	1.337505304813
6	37012	21969.626875748636	28.294890668381
6	37015	21970.854401486145	10.778211273525
6	37085	22005.035354482079	6.728768297584
6	37180	22042.919628975598	32.416547284544
6	37207	22057.669396593791	1.705107135512
6	37275	22086.613997408718	17.71711464754
6	37282	22090.538222033764	20.668800982879
6	37364	22138.65697803744	13.351129057538
6	37375	22143.649287423121	1.549269480817
6	37442	22186.411068771303	9.621540395251
6	37445	22188.110319408298	17.104690473152
6	37467	22199.977120280769	9.469427803421
6	37575	22281.301071007111	4.857305884716
6	37627	22333.132181015318	4.911530581303
6	37650	22352.699817128989	1.430206806958
6	37710	22405.524961078065	10.044825917972
6	37750	22438.943368629941	1.461034027115
6	37755	22450.236609677652	1.324175479263
6	37807	22503.596613693539	5.121627236808
6	37865	22527.380538158872	11.463506086612
6	37887	22535.943602528833	7.034846009349
6	37920	22558.879666543682	3.32054313891
6	37930	22568.718323906217	1.602751504444
6	37962	22593.86636902955	3.10932373409
6	38022	22615.085358520376	11.746990001199
6	38052	22654.57442283101	2.725757329929
6	38087	22681.86226417386	10.527271602935
6	38120	22700.291879751002	26.357694752238
6	38147	22711.400803216065	8.434375258159
6	38357	22799.930326423022	18.737042252852
6	38382	22813.238859417131	27.699781026704
6	38485	22852.553713116625	16.111313151404
6	38522	22907.918786510469	1.854216154478
6	38525	22909.19995662702	2.297329140334
6	38585	22970.829628121788	6.455090156205
6	38670	23015.715767626485	1.912746389769
6	38824	23091.950868563417	6.274533672789
6	38827	23093.932731343869	12.793340951107
6	38852	23108.304481949151	30.305550701496
6	38860	23113.746921458043	12.045971630378
6	38910	23166.973995030514	7.865093840554
6	38935	23192.743832922466	5.492672300688
6	38940	23195.286454364631	1.814234602079
6	38955	23203.820727481732	1.722424284555
6	38974	23211.990971802835	2.651517469128
6	38990	23219.780702332217	12.673105697415
6	39010	23235.575711824713	5.165027021447
6	39075	23292.141772193815	1.296970098216
6	39080	23295.970773788081	1.659031983837
6	39194	23344.221319021762	31.060766987091
6	39222	23360.286160523388	1.994208407961
6	39267	23379.222417877277	58.377515593853
6	39340	23406.786427506461	27.378878865664
6	39360	23425.962843795733	7.330694534794
6	39442	23485.670045874816	1.458369322307
6	39462	23501.694894231225	1.817135947011
6	39465	23503.25612557132	18.00162114589
6	39485	23513.990813729137	4.22813863866
6	39512	23528.880228010243	1.435437488928
6	39545	23553.480766867921	8.54207068116
6	39684	23661.304327683608	13.827439368359
6	39687	23662.991546748104	3.025905158995
6	39690	23664.967933165925	17.49981269515
6	39730	23710.721726844632	9.793746559936
6	39757	23727.751416553904	4.747901351659
6	39810	23789.314492688333	1.310126692057
6	39870	23821.565266675201	2.981540694007
6	39875	23826.044591217463	1.385189512186
6	40005	23923.576356846197	1.923890086636
6	40025	23941.867286353891	3.705561596891
6	40155	24046.889185118036	15.517076600948
6	40185	24059.57484552401	2.98696621335
6	40207	24069.204423914015	2.84249407152
6	40215	24074.136138127346	8.153760719364
6	40272	24100.740076179612	2.085433191586
6	40427	24176.937939109945	1.246144336648
6	40470	24212.908985683899	14.306332743531
6	40574	24287.571397812042	2.403292279559
6	40587	24293.183359157011	9.679710411831
6	40707	24341.928107358367	1.532090666397
6	40777	24370.280659970138	4.09546859256
6	40817	24386.091757332558	40.120675826176
6	40885	24408.389139570482	8.565893725109
6	40972	24501.712626579616	1.999766781367
6	41067	24559.746261568597	10.469219693762
6	41092	24572.151116301554	17.830038205064
6	41200	24647.264446016613	8.14535868402
6	41210	24662.55458434324	1.869060126878
6	41220	24675.018003806806	1.555973496661
6	41347	24751.022179363562	5.150966038746
6	41455	24838.07431064864	6.202578769039
6	41467	24846.916569713353	1.883410864197
6	41572	24888.37411239096	26.519799911895
6	41629	24917.187577528158	4.456477619068
6	41755	24993.0282123156	16.868891945432
6	41810	25019.135513185519	12.066473057385
6	41960	25077.332258963972	3.116743152863
6	42020	25103.614471219359	3.893838327728
6	42037	25119.717301701259	1.907514679618
6	42122	25160.475520367904	1.653461880071
6	42140	25166.926209003213	4.639559224465
6	42190	25211.471626759177	3.685877881796
6	42234	25255.065098102757	4.856318156735
6	42245	25278.584295699669	1.365654700622
6	42275	25307.02288804615	4.272297623707
6	42290	25314.156544516784	3.229557908258
6	42317	25322.382345242518	12.499943307076
6	42330	25327.080025811958	10.18799658104
6	42390	25346.584968269887	11.08575670119
6	42400	25350.434158995108	3.56039011482
6	42415	25371.156027631535	1.547639566101
6	42487	25461.530231093052	5.166479988954
6	42597	25535.723909395982	5.985556596355
6	42607	25539.593294362773	2.962794328257
6	42615	25546.033781822124	1.238823108934
6	42735	25648.404511416979	1.670596554317
6	42745	25688.249999703036	1.753672952764
6	42755	25695.345531004978	15.541904275508
6	42830	25742.537096179069	1.548305596039
6	42845	25779.987186604086	1.221550445072
6	42855	25789.316881905588	2.945240400816
6	42952	25830.729120900396	18.328430823089
6	43242	26027.668771156681	5.63285922524
6	43254	26036.520250840195	12.267736324888
6	43285	26049.993134865401	1.276626656204
6	43307	26057.631147037473	3.677660380606
6	43425	26107.850472150411	16.454429650294
6	43487	26148.153538120435	3.433214312346
6	43535	26169.478569317651	6.193863200731
6	43595	26192.894064057256	13.743951504177
6	43655	26222.842108397279	3.378303485608
6	43724	26247.434912550119	2.167953140369
6	43730	26250.92953817979	5.00006783228
6	43815	26284.160247411011	9.003846556138
6	43825	26293.678580992877	1.278943822533
6	43850	26323.80297917057	4.713233813118
6	43989	26399.189736254343	13.846709473719
6	44041	26416.819608010554	21.747107108933
6	44049	26420.00475594254	19.013230809084
6	44055	26423.324550550262	8.781144459196
6	44165	26465.426293700265	12.600365539387
6	44173	26468.657460863965	11.545945247301
6	44176	26470.52853629783	23.088589855246
6	44179	26472.139504869359	7.91059357118
6	44182	26473.358697766329	9.048503105662
6	44185	26475.133633659298	9.016449821602
6	44215	26501.982958726475	1.453081522882
6	44297	26560.094329499101	8.587149723246
6	44310	26566.340157998438	14.088001232207
6	44377	26593.44087957444	24.270090533819
6	44566	26675.591583879079	10.248135823603
6	44589	26684.42601891027	17.690006325939
6	44617	26699.320233981399	13.346919061399
6	44620	26700.62326442962	38.498039739855
6	44650	26715.01954292509	4.83528007002
6	44765	26768.648100970528	5.569793433323
6	44782	26780.874764757126	6.897400218988
6	44785	26782.250549181073	2.725077296854
6	44812	26798.871649160096	9.958071033809
6	44855	26855.179837317495	6.692233103896
6	44912	26876.087949569341	20.24130382985
6	45035	26931.870018661815	7.460179152857
6	45161	26974.741320028193	22.42076649418
6	45181	26981.123356905989	41.303776519429
6	45194	26986.125111658163	18.467476631704
6	45212	26992.816104476192	16.069681721305
6	45275	27057.416561435716	1.600558578223
6	45347	27107.27250566458	8.072477269455
6	45357	27112.391588026936	1.686299044266
6	45380	27135.393603036997	18.525519908492
6	45562	27232.716196216995	11.359303207517
6	45567	27234.000125421004	25.877082823237
6	45627	27289.31872803058	1.389115023799
6	45670	27322.293419700238	10.080794774676
6	45687	27345.663803004689	1.947741997801
6	45690	27347.390667778655	10.161325339007
6	45775	27405.928157392803	1.443971220218
6	45835	27441.228326332604	6.81828300194
6	45889	27464.404448241708	20.29694834853
6	45912	27474.052595245861	1.201041467302
6	45937	27491.151011279346	1.684862051478
6	45940	27493.102109914952	5.495481896213
6	46017	27523.729075295261	7.656417565675
6	46150	27579.64936078288	22.027142671999
6	46257	27618.482377683142	34.589806480541
6	46275	27627.469350727731	27.534747047379
6	46339	27653.552263859691	24.637587178908
6	46400	27726.351438519434	3.192709350686
6	46429	27746.876537752324	1.732369601913
6	46484	27763.39133028107	4.800056610445
6	46657	27844.62406916842	2.59931908584
6	46660	27846.004532163219	13.50266960856
6	46734	27874.705485150491	7.247923033434
6	46745	27880.117263320934	17.77029143193
6	46829	27940.778396232543	18.09764246889
6	46867	27963.237734084298	3.979565656973
6	46957	28013.295504862537	2.638743869095
6	46970	28017.856040171244	18.61788510648
6	47010	28057.281772358102	1.699331573583
6	47015	28061.375043719875	1.925877408497
6	47040	28091.860169766436	3.671135920123
6	47045	28095.463830729658	1.965114433877
6	47097	28162.25764641118	4.470137356943
6	47100	28163.54722714395	10.933640434788
6	47245	28233.870367943744	2.039846292261
6	47417	28307.805789094656	6.99702723753
6	47460	28333.453946354582	1.950922940113
6	47472	28340.38301610809	1.327075897343
6	47562	28373.028702032129	24.969590845239
6	47569	28374.506102176319	8.234920893148
6	47607	28400.293422421645	1.879796747491
6	47640	28422.034027240014	1.908771642484
6	47665	28437.03514140412	4.878805401411
6	47774	28474.093631380716	16.620554424704
6	47849	28499.434151548637	16.43626184431
6	47856	28501.054994525505	17.166329993977
6	47862	28504.376275061933	31.557536808939
6	47880	28516.501449198313	15.548563534493
6	47932	28544.032364854962	1.775000987574
6	47987	28564.240668622177	2.833287709304
6	48085	28622.77855600342	23.102991592671
6	48160	28650.391626906024	21.647718633397
6	48165	28656.98216042264	1.244005131908
6	48304	28713.329658913044	16.845280070257
6	48435	28840.642712895156	1.807827199996
6	48557	28885.512626152516	16.832331498368
6	48595	28900.443547333296	12.270750753852
6	48622	28920.401006415389	1.475873075239
6	48625	28922.165393332853	12.31920311981
6	48675	28970.531163757584	5.980231430249
6	48685	28979.992190337428	4.625758291058
6	48690	28982.535857557669	1.651552937552
6	48740	28999.156528796449	15.986370279456
6	48845	29055.915278392605	2.049198052617
6	48850	29058.733418845231	19.540445856428
6	48980	29177.985609821465	23.711887161053
6	49000	29197.655492980243	3.668273498975
6	49015	29214.149154926965	1.254258705303
6	49203	29272.5510022533	55.740995500795
6	49211	29275.651652743375	32.851959612862
6	49214	29276.862092094762	23.475810782566
6	49219	29278.371464460237	8.526284267618
6	49245	29290.459032866743	61.726678376586
6	49351	29361.397744690795	11.632998641372
6	49357	29364.545133602601	10.289289641443
6	49362	29366.223124284652	24.50610475291
6	49375	29371.5816765867	6.622044746408
6	49392	29379.150371460627	4.612436203101
6	49395	29381.048639788862	6.203957663094
6	49420	29399.788781985028	6.481032872907
6	49447	29413.979094686045	4.413737425988
6	49600	29552.460226141346	1.973388727196
6	49610	29558.566918386678	2.89557174125
6	49714	29609.177080874775	4.313151721569
6	49792	29634.340521480858	7.236825961016
6	49795	29636.266065889381	25.148197460745
6	49820	29660.390529577297	6.422137285975
6	49837	29667.752701218323	5.799654391793
6	49885	29714.452835419399	1.820331273228
6	49952	29739.417320910581	1.351060391217
6	49990	29755.265024300053	34.168363336511
6	50130	29811.938851014996	2.422333104156
6	50172	29826.131097569941	9.232857938993
6	50269	29864.527584045961	22.713819145584
6	50334	29908.294174683088	2.497083972567
6	50340	29911.164787880139	6.273491164855
6	50350	29926.410774097639	6.873020252621
6	50360	29942.50792964192	1.336947867647
6	50380	29956.011142410481	3.760132356366

