version 2
run Third_exit_2-10-20191017-13:44:13-1999
attr configname Third_exit_2
attr datetime 20191017-13:44:13
attr experiment Third_exit_2
attr inifile omnetpp.ini
attr iterationvars ""
attr iterationvarsf ""
attr measurement ""
attr network ResponseTimeNetwork
attr processid 1999
attr repetition 10
attr replication #10
attr resultdir results
attr runnumber 10
attr seedset 10
param **.Source.interArrivalTime exponential(6s)
param **.jobPriority bernoulli(0.8)
param **.PS.serviceTimeU1 "uniform(1.2s, 2.0s)"
param **.PS.serviceTimeU2 "uniform(2.4s, 2.8s)"
param **.SS1.serviceTime exponential(1.4s)
param **.SS2.serviceTime exponential(2s)
param **.PS.exitProbability bernoulli(0.2)

vector 0 ResponseTimeNetwork.SS1 queueLength:vector ETV
attr interpolationmode sample-hold
attr title "queue length, vector"
vector 1 ResponseTimeNetwork.SS2 queueLength:vector ETV
attr interpolationmode sample-hold
attr title "queue length, vector"
vector 2 ResponseTimeNetwork.QueueU1 queueLength:vector ETV
attr interpolationmode sample-hold
attr title "queue length, vector"
vector 3 ResponseTimeNetwork.QueueU2 queueLength:vector ETV
attr interpolationmode sample-hold
attr title "queue length, vector"
vector 4 ResponseTimeNetwork.sink lifeTimeU1:vector ETV
attr interpolationmode none
attr title "lifetime of arrived jobs U1, vector"
attr unit s
vector 5 ResponseTimeNetwork.sink lifeTime:vector ETV
attr interpolationmode none
attr title "lifetime of arrived jobs, vector"
attr unit s
vector 6 ResponseTimeNetwork.sink lifeTimeU2:vector ETV
attr interpolationmode none
attr title "lifetime of arrived jobs U2, vector"
attr unit s
0	0	0	0
0	4512	4315.23010448115	1
0	4514	4315.372697170852	0
0	5005	4764.688500351537	1
0	5006	4765.83911140423	0
0	6000	5530.779247980528	1
0	6001	5531.866022585501	0
0	6534	6026.361422815296	1
0	6536	6027.980180358573	0
0	6866	6342.532718140235	1
0	6868	6342.563110215792	0
0	8160	7639.885568282996	1
0	8161	7640.805413929586	0
0	9380	8935.116997637223	1
0	9381	8936.958732130443	0
0	11727	11055.417131308977	1
0	11729	11056.689019155392	0
0	12355	11678.8853460746	1
0	12361	11682.082484466013	0
0	12555	11872.100124853421	1
0	12556	11875.94956819023	0
0	13147	12433.420620423473	1
0	13149	12434.682038786066	0
0	13200	12460.674774929117	1
0	13201	12461.572935623922	0
0	14612	13764.334438905561	1
0	14614	13764.384578609087	0
0	17605	16731.602204703092	1
0	17606	16731.797045630236	0
0	17712	16829.859826469227	1
0	17714	16830.547122799504	0
0	19982	18946.088980135027	1
0	19984	18946.832033502884	0
0	20455	19419.198202343213	1
0	20456	19421.991101607046	0
0	21832	20839.823944763919	1
0	21835	20841.705679881839	2
0	21841	20844.353295735183	1
0	21844	20844.818959410491	0
0	21934	20903.796400069538	1
0	21943	20905.668523253145	0
0	25942	24596.843356654319	1
0	25944	24597.599402963674	0
0	27232	25910.589034257005	1
0	27234	25910.66095101451	0
0	27885	26570.541757113768	1
0	27889	26572.434671193133	0
0	28165	26820.676429100906	1
0	28166	26822.076723780342	0
0	29812	28282.201662321744	1
0	29816	28283.109615064578	0
0	30157	28673.474599060774	1
0	30161	28677.384440396156	0
0	30407	28841.505158002159	1
0	30409	28842.519605861197	0
1	0	0	0
1	19232	18135.61962897385	1
1	19236	18137.858935552532	0
1	24990	23721.106012390512	1
1	24996	23728.438459850121	0
1	24999	23728.799379383596	1
1	25019	23735.63405597997	0
1	25385	24010.899944336319	1
1	25386	24010.99098070204	0
2	0	0	0
2	25	20.85754703196	1
2	26	21.016665675953	0
2	30	21.835328500427	1
2	31	22.979380351022	0
2	55	50.704550800017	1
2	56	51.389847657928	0
2	60	51.624647139034	1
2	61	53.056968751648	0
2	70	59.020538066724	1
2	71	59.779115615549	0
2	105	98.104434430728	1
2	106	99.109483337728	0
2	130	130.803627062431	1
2	131	131.235594906974	0
2	135	132.9100741356	1
2	136	133.109849256966	0
2	140	133.89332511498	1
2	143	134.786200940553	0
2	155	152.187127972335	1
2	156	152.552735851762	0
2	170	160.441836497037	1
2	172	161.256561342198	2
2	173	161.44748006663	1
2	177	161.755499094505	2
2	178	162.912055515635	1
2	181	164.144022884171	0
2	195	170.532181822556	1
2	196	171.883229496093	0
2	215	188.395569776658	1
2	216	189.212226527059	0
2	220	190.220192101603	1
2	222	190.374559658095	2
2	223	190.817352788025	1
2	226	192.017570810453	0
2	230	192.540917456559	1
2	231	193.749295185753	0
2	280	253.70492332723	1
2	282	254.65679580626	2
2	283	255.063513148254	1
2	287	255.311541834917	2
2	289	255.489224323961	3
2	290	256.67338047461	2
2	293	257.913762613808	1
2	296	259.384015323644	0
2	305	260.946425656441	1
2	306	262.309147540186	0
2	317	265.755757564703	1
2	318	266.496386064293	0
2	330	273.945379801165	1
2	331	274.979821091679	0
2	360	300.523805175375	1
2	361	301.432602791654	0
2	380	338.345304719924	1
2	381	338.591004974227	0
2	390	341.701732318962	1
2	391	342.239414098605	0
2	440	385.717495925886	1
2	441	386.118139666928	0
2	460	410.896173167256	1
2	461	411.681441485264	0
2	475	419.999665258172	1
2	476	420.588371670256	0
2	480	421.15254327255	1
2	481	422.467382927435	0
2	487	423.524435941053	1
2	488	424.032740953947	0
2	492	424.206514260505	1
2	493	425.832622984434	0
2	500	428.309953527919	1
2	502	428.642546880742	2
2	503	429.405958905826	1
2	506	430.770719113211	0
2	510	431.442810905561	1
2	511	432.429740097943	0
2	525	438.556920797645	1
2	526	439.818982790189	0
2	575	491.07561145979	1
2	576	491.106181728146	0
2	580	492.948408464447	1
2	581	493.037047112226	0
2	595	505.676943733397	1
2	596	507.413992086579	0
2	630	533.502251799137	1
2	632	534.542742156127	2
2	633	534.548229056344	1
2	636	535.764373799719	0
2	640	536.531729469116	1
2	641	537.293274355427	0
2	650	539.307786140518	1
2	651	541.063193244048	0
2	715	612.234904272516	1
2	716	612.474327150133	0
2	760	661.663912678489	1
2	762	662.107558261783	2
2	763	662.824475766447	1
2	767	664.287621819687	2
2	768	664.651647198301	1
2	771	666.318891895104	0
2	795	681.381281800532	1
2	796	683.059404195434	0
2	820	706.03001435561	1
2	821	706.392432133162	0
2	850	752.610517958072	1
2	851	753.442760843355	0
2	865	761.371311337542	1
2	866	761.980354501268	0
2	870	762.358575899691	1
2	871	763.258172497114	0
2	875	763.407182661555	1
2	878	765.034812418518	0
2	985	849.740019350512	1
2	986	850.85787081603	0
2	1015	880.564747520561	1
2	1016	881.919641776158	0
2	1040	895.410033758702	1
2	1041	896.614160473618	0
2	1045	897.142032181152	1
2	1046	898.599628356445	0
2	1060	917.394348683577	1
2	1061	917.592130821104	0
2	1070	920.390743070805	1
2	1071	921.168486034589	0
2	1090	935.578468551621	1
2	1091	936.495267954391	0
2	1105	947.657671400425	1
2	1106	948.36103128761	0
2	1110	949.095894099512	1
2	1112	949.387156242399	2
2	1113	949.634590717852	1
2	1118	951.185994194336	0
2	1160	1038.04775046064	1
2	1162	1038.799254588616	2
2	1164	1039.187814709226	3
2	1165	1039.757518436434	2
2	1169	1039.917615321294	3
2	1170	1041.608122781711	2
2	1173	1043.531628404977	1
2	1176	1045.351122892508	0
2	1180	1046.197808595601	1
2	1181	1046.972232456738	0
2	1240	1089.842950840825	1
2	1241	1089.858598452715	0
2	1250	1092.503985668966	1
2	1251	1093.083550171649	0
2	1270	1103.387403385133	1
2	1272	1103.952025644745	2
2	1273	1104.232140246178	1
2	1277	1105.249615505111	2
2	1278	1106.165165516506	1
2	1281	1107.842889589216	0
2	1300	1128.87169171458	1
2	1302	1129.983281073831	2
2	1303	1130.546770274544	1
2	1306	1132.093714005591	0
2	1320	1145.024757121996	1
2	1324	1145.274344317378	2
2	1325	1146.7846082345	1
2	1330	1148.463147040305	0
2	1334	1149.030783804168	1
2	1336	1149.041085932832	2
2	1337	1149.992854055238	1
2	1340	1151.257527979498	0
2	1370	1175.719344667544	1
2	1371	1176.264923595138	0
2	1385	1207.02488985233	1
2	1386	1207.936833854631	0
2	1415	1230.036080500501	1
2	1417	1231.187836065529	2
2	1418	1231.361764161958	1
2	1421	1233.335355672164	0
2	1425	1234.051093038217	1
2	1426	1234.691303402109	0
2	1455	1253.367783197406	1
2	1456	1253.987366958152	0
2	1480	1292.427848158297	1
2	1481	1293.630525037238	0
2	1485	1293.737408618386	1
2	1487	1293.885615520535	2
2	1489	1294.737011312149	3
2	1490	1295.51390315626	2
2	1493	1296.898893267626	1
2	1496	1298.164627678284	0
2	1525	1325.557040489234	1
2	1526	1326.22842227915	0
2	1555	1347.461508595094	1
2	1556	1348.85014301716	0
2	1560	1350.207538366576	1
2	1562	1350.234042712677	2
2	1563	1350.397867130028	1
2	1567	1351.137447322771	2
2	1568	1351.709501288371	1
2	1573	1352.956927639345	0
2	1577	1353.857627423473	1
2	1578	1354.445404863084	0
2	1585	1357.053829034511	1
2	1587	1357.835429557177	2
2	1588	1358.329108429613	1
2	1592	1359.180165750334	2
2	1593	1359.652959322283	1
2	1598	1361.002087264234	0
2	1660	1441.387438858523	1
2	1661	1443.037527574548	0
2	1665	1443.793021369491	1
2	1666	1444.485493687303	0
2	1685	1460.208658627782	1
2	1686	1461.576280758654	0
2	1690	1462.093216780728	1
2	1691	1462.897467726593	0
2	1707	1480.619907171617	1
2	1708	1481.076171952056	0
2	1725	1503.602539856946	1
2	1726	1503.989845403695	0
2	1730	1505.064418528561	1
2	1731	1505.396582848059	0
2	1745	1512.801049294482	1
2	1746	1513.846267985948	0
2	1750	1514.691164809755	1
2	1751	1515.253926993184	0
2	1790	1571.496397198185	1
2	1791	1572.179572441029	0
2	1795	1572.558698377476	1
2	1796	1573.961924589398	0
2	1855	1634.963872910241	1
2	1856	1635.491020194731	0
2	1900	1686.449004127232	1
2	1901	1686.479855421886	0
2	1910	1692.292055438187	1
2	1911	1693.574560422593	0
2	1930	1711.814730185004	1
2	1932	1711.889357448942	2
2	1933	1712.005728818975	1
2	1937	1712.391567248755	2
2	1938	1713.370041068211	1
2	1941	1714.946011794485	0
2	1950	1723.817133567241	1
2	1951	1724.105362673093	0
2	1955	1725.197392652403	1
2	1956	1725.493350515876	0
2	1987	1756.660969486898	1
2	1988	1757.022342541441	0
2	1992	1757.545676394015	1
2	1993	1758.252753433957	0
2	2025	1802.246812417336	1
2	2026	1802.744568704232	0
2	2030	1803.864740397342	1
2	2031	1804.64359516108	0
2	2035	1805.256635479819	1
2	2036	1806.635729356274	0
2	2065	1865.471956705545	1
2	2066	1866.858697357766	0
2	2090	1887.783266184477	1
2	2091	1887.922419333911	0
2	2130	1934.563149260137	1
2	2131	1934.621743817484	0
2	2135	1935.301293406479	1
2	2136	1936.467540506689	0
2	2150	1967.153831453045	1
2	2151	1968.396004355426	0
2	2170	1981.576237641121	1
2	2172	1981.596264666062	2
2	2173	1983.171977861738	1
2	2178	1984.620527564315	0
2	2182	1985.54250448392	1
2	2183	1986.127124575665	0
2	2235	2048.306618793808	1
2	2236	2049.866056317422	0
2	2245	2063.590053032127	1
2	2246	2064.203331592685	0
2	2250	2065.410597423951	1
2	2251	2066.075303710072	0
2	2300	2102.167598154547	1
2	2301	2102.874063031669	0
2	2325	2160.046656792095	1
2	2326	2160.393508387154	0
2	2335	2163.621445685425	1
2	2336	2163.915645855401	0
2	2355	2174.25692767578	1
2	2356	2174.597649315051	0
2	2375	2199.914993470928	1
2	2376	2200.125745445384	0
2	2475	2315.927739700816	1
2	2476	2316.263720963811	0
2	2490	2321.485010063043	1
2	2491	2321.796398449101	0
2	2495	2321.886996230753	1
2	2497	2321.962669174346	2
2	2498	2323.708855691709	1
2	2503	2325.680090104387	0
2	2515	2343.615325233552	1
2	2516	2344.862374444859	0
2	2520	2345.259588047685	1
2	2521	2346.581051316479	0
2	2555	2389.882778502592	1
2	2556	2389.976838796122	0
2	2570	2395.344023183853	1
2	2571	2396.7561080341	0
2	2575	2397.506250428718	1
2	2576	2398.420576325874	0
2	2590	2406.220009285936	1
2	2591	2407.642764662903	0
2	2600	2409.228626617793	1
2	2601	2410.45238527036	0
2	2610	2418.737011937659	1
2	2611	2419.655025641198	0
2	2615	2421.129148204143	1
2	2616	2421.133689576524	0
2	2640	2436.764321209563	1
2	2641	2436.96593952337	0
2	2650	2455.049674594561	1
2	2651	2455.542908838174	0
2	2660	2460.338449241027	1
2	2661	2460.868477865527	0
2	2675	2478.767312832904	1
2	2676	2479.325618860899	0
2	2680	2479.710828135239	1
2	2681	2480.697185750893	0
2	2690	2488.719915529846	1
2	2691	2489.651625214198	0
2	2700	2493.115186988575	1
2	2701	2493.912407743033	0
2	2705	2494.666492948036	1
2	2706	2495.679757156443	0
2	2710	2495.869517229003	1
2	2711	2497.53941253278	0
2	2715	2499.250253161672	1
2	2716	2499.524337879229	0
2	2735	2514.128001792035	1
2	2737	2514.787775389592	2
2	2738	2514.812148325052	1
2	2743	2516.332804996055	0
2	2755	2521.753536451799	1
2	2756	2523.16467843462	0
2	2790	2571.877664484129	1
2	2791	2573.192017816885	0
2	2795	2573.365464292641	1
2	2796	2574.780658733419	0
2	2800	2574.873387312633	1
2	2801	2576.394036428577	0
2	2825	2627.939444361204	1
2	2826	2628.964518881669	0
2	2890	2748.344170045753	1
2	2891	2748.803068353685	0
2	2900	2751.49794466053	1
2	2902	2751.795465411112	2
2	2904	2752.405325225304	3
2	2905	2752.896927418875	2
2	2908	2754.751020157466	1
2	2911	2756.66761608118	0
2	2925	2770.728317130323	1
2	2926	2770.908987176406	0
2	2930	2771.125520072252	1
2	2931	2772.242249163042	0
2	2955	2791.641637687003	1
2	2956	2792.891818413543	0
2	2960	2793.024894878418	1
2	2961	2794.838577463696	0
2	2965	2795.624534674219	1
2	2966	2796.234115104968	0
2	2990	2822.825930318859	1
2	2992	2824.046034418226	2
2	2993	2824.715269712794	1
2	2996	2825.939508259732	0
2	3000	2826.915119075044	1
2	3001	2827.853988153923	0
2	3005	2828.128904898025	1
2	3007	2828.660534633239	2
2	3008	2829.063756705139	1
2	3012	2829.236481943653	2
2	3014	2829.747257290029	3
2	3015	2830.887989586655	2
2	3020	2832.324808762472	1
2	3023	2834.109633668203	0
2	3027	2835.054679935524	1
2	3028	2835.340703655657	0
2	3074	2864.405332509295	1
2	3075	2865.051958812108	0
2	3082	2867.214711656567	1
2	3083	2867.657880116893	0
2	3120	2912.564700523301	1
2	3121	2913.05806028365	0
2	3165	2979.288541655789	1
2	3166	2980.501793624644	0
2	3210	3018.138244108128	1
2	3211	3018.415167964268	0
2	3215	3019.635148571576	1
2	3216	3020.032728598844	0
2	3220	3020.543825666475	1
2	3221	3021.899234519917	0
2	3225	3022.431187063133	1
2	3226	3023.826260779816	0
2	3235	3027.571103798304	1
2	3238	3028.289876060184	0
2	3245	3030.183401346901	1
2	3246	3031.301398840915	0
2	3255	3036.323315289328	1
2	3256	3036.350130267373	0
2	3260	3036.405817491649	1
2	3261	3037.791607046245	0
2	3335	3115.013628198513	1
2	3336	3116.289632311287	0
2	3360	3141.274500423284	1
2	3361	3142.34629424095	0
2	3365	3143.907220072894	1
2	3366	3144.299138576648	0
2	3385	3150.969072224254	1
2	3386	3152.682614683358	0
2	3420	3176.521102068475	1
2	3421	3177.398280529178	0
2	3427	3179.158506475822	1
2	3428	3179.222753387562	0
2	3435	3180.705086067589	1
2	3437	3182.169913160597	2
2	3438	3182.284619997501	1
2	3443	3183.966209713988	0
2	3455	3186.829437157906	1
2	3457	3188.353746428208	2
2	3458	3188.677646340676	1
2	3461	3190.174074439764	0
2	3475	3195.585531673432	1
2	3476	3196.896716251356	0
2	3510	3232.262063518631	1
2	3511	3232.843199227698	0
2	3525	3243.597378012471	1
2	3526	3243.725622363759	0
2	3530	3244.874696172012	1
2	3532	3244.876499344209	2
2	3533	3245.477046874163	1
2	3536	3247.087130533901	0
2	3545	3251.364394887658	1
2	3546	3251.731645529643	0
2	3580	3297.025776914343	1
2	3582	3297.918911778381	2
2	3584	3298.012273332917	3
2	3585	3298.212603285191	2
2	3589	3298.787409985929	3
2	3590	3299.976126538244	2
2	3593	3301.254347002347	1
2	3596	3302.625808018659	0
2	3600	3302.95024903498	1
2	3601	3303.887958604869	0
2	3605	3304.877633972055	1
2	3606	3305.541254692738	0
2	3630	3317.829203503006	1
2	3631	3319.32158693057	0
2	3635	3320.234587668334	1
2	3636	3320.60920503587	0
2	3700	3412.405049239728	1
2	3701	3414.172340678332	0
2	3705	3415.106028372826	1
2	3706	3415.696266783123	0
2	3710	3417.389072843128	1
2	3711	3417.549814603013	0
2	3745	3475.42322709983	1
2	3746	3476.534592061865	0
2	3755	3478.232299567128	1
2	3756	3479.890393816496	0
2	3760	3480.791534369816	1
2	3761	3481.619803564067	0
2	3775	3491.915004139046	1
2	3776	3492.849715518452	0
2	3825	3594.145037428132	1
2	3826	3595.212027257679	0
2	3832	3596.567624460051	1
2	3833	3597.143202412872	0
2	3840	3599.925100005696	1
2	3842	3600.263678280135	2
2	3843	3600.526973943411	1
2	3846	3602.343601388669	0
2	3870	3651.218767545954	1
2	3871	3651.38483809306	0
2	3885	3660.266276114528	1
2	3886	3660.809547458789	0
2	3935	3747.840914007241	1
2	3936	3748.50002299314	0
2	3945	3752.612767994107	1
2	3946	3753.753533823474	0
2	3950	3754.238953503571	1
2	3951	3755.287563344522	0
2	4005	3821.555970380424	1
2	4006	3822.17018691316	0
2	4010	3823.47035359885	1
2	4011	3823.589300361608	0
2	4040	3840.673457877103	1
2	4042	3840.846061892827	2
2	4043	3841.816690582537	1
2	4046	3843.248935250507	0
2	4055	3848.384582585579	1
2	4056	3849.402997855866	0
2	4090	3897.222269697489	1
2	4091	3898.33609057217	0
2	4130	3940.570907916117	1
2	4132	3941.222591952951	2
2	4133	3941.775280332736	1
2	4137	3941.931943472682	2
2	4138	3943.124979242108	1
2	4142	3943.661081495993	2
2	4143	3944.952372574604	1
2	4147	3945.5988375692	2
2	4148	3946.718546345441	1
2	4153	3948.52045064064	0
2	4180	3983.030556993916	1
2	4181	3983.213616705937	0
2	4310	4136.865275154269	1
2	4311	4137.343092832459	0
2	4320	4139.635044158104	1
2	4321	4140.856121848562	0
2	4340	4153.958326929337	1
2	4341	4154.780219668545	0
2	4365	4196.949143639806	1
2	4366	4197.430329074081	0
2	4375	4202.363549814574	1
2	4376	4203.231999541376	0
2	4445	4265.079078404152	1
2	4448	4266.429217660422	0
2	4455	4268.007454573545	1
2	4456	4269.733714854153	0
2	4475	4282.612899559813	1
2	4476	4283.026970795009	0
2	4495	4309.456406760438	1
2	4496	4310.139810172003	0
2	4500	4311.724006244601	1
2	4501	4312.084321502131	0
2	4505	4312.676190279341	1
2	4506	4313.745685133059	0
2	4510	4313.839626205448	1
2	4511	4315.23010448115	0
2	4515	4315.372697170852	1
2	4517	4316.67147704256	2
2	4518	4317.16715838397	1
2	4521	4318.516850764957	0
2	4530	4323.670812232246	1
2	4531	4325.318494521995	0
2	4535	4325.982487134979	1
2	4536	4326.888709310424	0
2	4545	4332.525023739032	1
2	4546	4334.082916760691	0
2	4560	4345.916074149732	1
2	4561	4347.37918723171	0
2	4575	4353.234887515699	1
2	4576	4353.409781235319	0
2	4580	4353.745795175939	1
2	4581	4354.893790779498	0
2	4605	4382.044516999057	1
2	4606	4383.372529118872	0
2	4655	4442.321475975312	1
2	4656	4442.753282458388	0
2	4680	4477.70058262108	1
2	4681	4478.463434638937	0
2	4715	4509.708328259605	1
2	4716	4510.168785854068	0
2	4725	4512.172104983401	1
2	4726	4513.309715090518	0
2	4760	4527.456112072569	1
2	4761	4528.269500052523	0
2	4830	4625.899354443987	1
2	4832	4626.034081139862	2
2	4833	4627.488711648215	1
2	4836	4628.920063434508	0
2	4860	4661.093998042696	1
2	4861	4661.975804313454	0
2	4885	4678.810613510755	1
2	4886	4680.034854763003	0
2	4900	4686.336876371621	1
2	4901	4687.602900420542	0
2	4915	4699.22343076736	1
2	4916	4700.080466446075	0
2	4970	4746.723831202846	1
2	4971	4747.39117162314	0
2	4975	4748.610865872437	1
2	4976	4749.011957235194	0
2	4990	4759.727496194124	1
2	4992	4760.155050311666	2
2	4993	4760.562561576891	1
2	4997	4761.393706496084	2
2	4998	4761.935168513361	1
2	5001	4763.238801868524	0
2	5090	4841.001243269024	1
2	5091	4841.268195769082	0
2	5095	4841.351563070669	1
2	5098	4842.506087027568	0
2	5102	4842.731222403982	1
2	5103	4844.101337625164	0
2	5125	4859.571060687504	1
2	5126	4859.94067722259	0
2	5155	4893.153303149196	1
2	5156	4893.785938559029	0
2	5160	4894.258227718643	1
2	5161	4895.435679096844	0
2	5165	4896.657097166073	1
2	5166	4896.917270006914	0
2	5180	4904.07900335667	1
2	5181	4904.456963324442	0
2	5195	4919.109822560272	1
2	5196	4919.433250767965	0
2	5200	4920.64733003769	1
2	5201	4920.696461123455	0
2	5235	4936.629821746143	1
2	5236	4936.707049713383	0
2	5255	4954.176803588457	1
2	5256	4955.500077383225	0
2	5265	4957.311381949975	1
2	5266	4958.766811282006	0
2	5285	4969.842599730511	1
2	5286	4971.124914140816	0
2	5290	4971.312666144216	1
2	5292	4972.933254985625	2
2	5293	4973.121880490336	1
2	5297	4974.194276076427	2
2	5298	4974.335694457594	1
2	5301	4976.080494081791	0
2	5305	4976.451952398171	1
2	5306	4977.313107495758	0
2	5320	4991.938081845329	1
2	5321	4992.92588170615	0
2	5355	5031.523424554409	1
2	5358	5031.875701232981	0
2	5362	5033.27757147971	1
2	5363	5033.729089756105	0
2	5367	5034.812921687211	1
2	5368	5035.612267446872	0
2	5375	5037.706458777119	1
2	5378	5038.545960558002	0
2	5395	5065.777429192077	1
2	5396	5065.950848034316	0
2	5420	5079.685344807845	1
2	5421	5080.90633772419	0
2	5430	5083.978176015656	1
2	5432	5084.440283004376	2
2	5433	5085.093696761231	1
2	5436	5086.997230611282	0
2	5455	5112.632184362798	1
2	5456	5112.669869409969	0
2	5485	5165.963648473175	1
2	5486	5167.298163285822	0
2	5500	5179.136314670426	1
2	5501	5180.634752553645	0
2	5510	5182.72687530194	1
2	5511	5184.449718614442	0
2	5525	5194.870111157952	1
2	5527	5196.132567730735	2
2	5528	5196.583367876188	1
2	5531	5198.407857214884	0
2	5555	5213.316277240722	1
2	5556	5214.094377371358	0
2	5565	5219.333222912378	1
2	5566	5219.808630661734	0
2	5570	5219.901047994274	1
2	5571	5221.574692765318	0
2	5595	5233.452332240898	1
2	5596	5235.321528042955	0
2	5615	5245.718235488399	1
2	5617	5246.654025673707	2
2	5618	5247.08405804936	1
2	5621	5248.730333952645	0
2	5635	5271.619011016118	1
2	5636	5271.785358938845	0
2	5640	5271.939211872145	1
2	5641	5273.403036364624	0
2	5650	5279.822297438866	1
2	5651	5280.764251071242	0
2	5665	5287.291355111542	1
2	5666	5288.092070972037	0
2	5675	5292.320746964571	1
2	5677	5292.678470682703	2
2	5678	5293.998953816937	1
2	5681	5295.368224134939	0
2	5690	5297.133814045949	1
2	5691	5298.012523573162	0
2	5725	5337.711403365543	1
2	5726	5338.510080407891	0
2	5735	5340.72519855669	1
2	5736	5341.28172832835	0
2	5750	5346.009663646295	1
2	5752	5346.281828375935	2
2	5753	5346.693991681833	1
2	5756	5348.347304233808	0
2	5760	5349.038932182464	1
2	5762	5349.305149840092	2
2	5763	5349.575095844354	1
2	5766	5351.161604761045	0
2	5770	5352.412107982722	1
2	5771	5353.042105219226	0
2	5775	5354.223573473517	1
2	5776	5354.504164326649	0
2	5785	5362.291670788354	1
2	5786	5363.526139152163	0
2	5810	5380.180743111327	1
2	5811	5380.626629437348	0
2	5840	5405.712519230704	1
2	5841	5406.22032305105	0
2	5857	5415.116980087832	1
2	5859	5415.192574348618	2
2	5860	5415.367803215178	1
2	5864	5416.633875903762	2
2	5865	5417.331533237862	1
2	5869	5417.928217316031	2
2	5871	5418.285348807513	3
2	5872	5419.025937169361	2
2	5876	5420.26930345948	3
2	5877	5420.539623269568	2
2	5881	5421.577584865543	3
2	5882	5421.818452132436	2
2	5885	5423.713831023256	1
2	5888	5425.166791843007	0
2	5892	5425.874820474706	1
2	5893	5426.921313544678	0
2	5897	5428.15156532454	1
2	5898	5428.831116937044	0
2	5925	5477.008089976736	1
2	5926	5478.354678935293	0
2	5940	5489.144055804929	1
2	5941	5490.603980751521	0
2	5950	5497.346789661042	1
2	5951	5497.638300318269	0
2	5995	5528.86356375645	1
2	5996	5529.165553169847	0
2	6005	5532.438481700974	1
2	6008	5533.533301846665	0
2	6042	5570.812492203067	1
2	6043	5570.889310165654	0
2	6047	5572.296513905438	1
2	6048	5572.672600455369	0
2	6052	5573.228952383258	1
2	6053	5574.563647249873	0
2	6062	5576.309797196449	1
2	6063	5577.663497920307	0
2	6075	5582.188054205048	1
2	6076	5582.713673756138	0
2	6080	5582.71719205272	1
2	6081	5584.202488642797	0
2	6095	5589.406123303869	1
2	6096	5590.33190501754	0
2	6115	5601.208240226066	1
2	6117	5601.73866722877	2
2	6119	5601.959188791145	3
2	6120	5602.896266023742	2
2	6125	5604.580562357159	1
2	6128	5606.129214022236	0
2	6132	5606.245341816448	1
2	6135	5607.590153375009	0
2	6155	5628.29584563776	1
2	6156	5628.645373360804	0
2	6170	5665.297642867044	1
2	6171	5665.585956246957	0
2	6180	5667.836470275864	1
2	6181	5668.533735585682	0
2	6210	5713.977370392187	1
2	6212	5714.560530353631	2
2	6213	5715.527375848572	1
2	6216	5717.510832491311	0
2	6235	5742.100050187691	1
2	6237	5742.925133726023	2
2	6238	5742.935243620689	1
2	6241	5744.56703356352	0
2	6260	5752.65976115196	1
2	6261	5753.476330248018	0
2	6305	5794.697122699813	1
2	6306	5794.719657583014	0
2	6350	5852.849367915804	1
2	6351	5852.914175671813	0
2	6405	5920.966060569781	1
2	6406	5922.702984166885	0
2	6415	5925.784598858743	1
2	6416	5926.366917521849	0
2	6420	5927.127570985418	1
2	6421	5927.761887801036	0
2	6450	5963.035641362878	1
2	6451	5963.290821978886	0
2	6480	6008.412973201951	1
2	6481	6009.41421192226	0
2	6485	6010.973422729216	1
2	6486	6011.037601904692	0
2	6490	6011.743684465987	1
2	6491	6012.921267894963	0
2	6495	6013.03789944597	1
2	6497	6013.208885533949	2
2	6499	6014.0193040203	3
2	6500	6014.786839141445	2
2	6504	6015.4484688188	3
2	6505	6016.591508042561	2
2	6509	6016.82276207953	3
2	6511	6018.324517053728	4
2	6512	6018.466498615155	3
2	6516	6018.83080612739	4
2	6518	6019.567217350875	5
2	6519	6019.900628702836	4
2	6522	6021.574904612759	3
2	6525	6023.546108352328	2
2	6529	6024.216215351204	3
2	6530	6025.002453000034	2
2	6533	6026.361422815296	1
2	6537	6027.980180358573	2
2	6538	6028.186314993846	1
2	6542	6028.450732055148	2
2	6544	6028.536357289788	3
2	6545	6029.66469254599	2
2	6548	6031.492248993675	1
2	6554	6032.303615839238	2
2	6555	6033.094900882925	1
2	6558	6034.433595261472	0
2	6565	6036.508548136883	1
2	6566	6038.325640180829	0
2	6570	6039.809185846517	1
2	6571	6039.812892492424	0
2	6605	6068.053826914232	1
2	6606	6069.663291721335	0
2	6610	6070.936035016354	1
2	6611	6070.94508727259	0
2	6630	6095.099014877459	1
2	6631	6095.878297968297	0
2	6640	6109.77682823751	1
2	6641	6109.968396623136	0
2	6645	6110.703649509852	1
2	6646	6111.390955370182	0
2	6660	6133.167229149008	1
2	6661	6133.85719314063	0
2	6702	6178.700554910831	1
2	6703	6179.888512165868	0
2	6707	6181.306222509004	1
2	6708	6181.421611596295	0
2	6730	6212.149317190935	1
2	6731	6212.300534885818	0
2	6755	6255.982862720507	1
2	6757	6256.874860535089	2
2	6759	6257.343167758527	3
2	6760	6257.430281879665	2
2	6763	6258.773672735976	1
2	6766	6259.999120985629	0
2	6770	6260.802524523156	1
2	6772	6260.82000865212	2
2	6775	6261.818040227989	1
2	6778	6263.57330871197	0
2	6795	6284.373280137793	1
2	6796	6285.715982928721	0
2	6800	6286.514792165109	1
2	6801	6287.436129334045	0
2	6835	6334.839779333697	1
2	6837	6334.983434448169	2
2	6838	6335.332451921677	1
2	6841	6336.664962068548	0
2	6845	6337.933102203273	1
2	6846	6337.937795861972	0
2	6850	6338.155045976711	1
2	6852	6338.321395498179	2
2	6854	6338.448414173948	3
2	6855	6339.811260877711	2
2	6859	6340.704700587493	3
2	6860	6341.167334470687	2
2	6864	6341.885124521907	3
2	6865	6342.532718140235	2
2	6869	6342.563110215792	3
2	6871	6343.834199810602	4
2	6872	6343.963695590174	3
2	6875	6345.866731102741	2
2	6878	6347.226158504723	1
2	6882	6347.824265842665	2
2	6883	6348.474944334826	1
2	6886	6350.324203377193	0
2	6895	6368.289152246543	1
2	6896	6369.814803856312	0
2	6980	6504.828154690803	1
2	6981	6505.337253029678	0
2	7005	6536.730873372977	1
2	7008	6538.235878902056	0
2	7070	6594.594684391495	1
2	7071	6595.515076842797	0
2	7075	6596.070063926246	1
2	7076	6597.297444400457	0
2	7100	6627.153854348843	1
2	7101	6628.023261590957	0
2	7125	6654.220926589887	1
2	7128	6654.925924132806	0
2	7145	6665.740094249927	1
2	7147	6665.924927841058	2
2	7148	6666.193827857479	1
2	7151	6667.492388027004	0
2	7157	6668.200229483415	1
2	7159	6669.240491365695	2
2	7160	6669.451363614976	1
2	7163	6670.812619521871	0
2	7167	6671.225760209433	1
2	7168	6672.499181673892	0
2	7190	6693.191519928419	1
2	7191	6694.025626330377	0
2	7210	6719.890728786994	1
2	7213	6720.407256425035	0
2	7217	6720.818037989298	1
2	7218	6722.262177889471	0
2	7265	6749.246369242374	1
2	7267	6750.355905796684	2
2	7268	6750.554763079743	1
2	7271	6752.007183810073	0
2	7280	6754.1952201619	1
2	7281	6755.251069677058	0
2	7285	6756.648084131618	1
2	7286	6756.827653987143	0
2	7300	6796.812494327564	1
2	7301	6797.913713055282	0
2	7310	6802.153721996435	1
2	7311	6802.316543188276	0
2	7345	6865.219087704898	1
2	7346	6865.732724909939	0
2	7415	6927.301091460315	1
2	7416	6928.508053612749	0
2	7420	6929.109471066057	1
2	7422	6929.411769067738	2
2	7423	6929.820536595437	1
2	7427	6930.065715143278	2
2	7428	6931.168202701065	1
2	7432	6931.3840472269	2
2	7433	6932.859105084691	1
2	7436	6934.264585503418	0
2	7440	6935.52910514388	1
2	7441	6935.725828075636	0
2	7445	6936.893319673761	1
2	7446	6937.082832533907	0
2	7450	6938.059253097784	1
2	7451	6938.928324735951	0
2	7470	6966.475700759882	1
2	7471	6967.823041046438	0
2	7615	7138.160478807535	1
2	7616	7138.583221177947	0
2	7620	7138.7182299097	1
2	7622	7139.446283000922	2
2	7623	7140.388042774242	1
2	7626	7142.295683676754	0
2	7670	7203.110225622347	1
2	7671	7204.046368177552	0
2	7675	7204.27544655767	1
2	7676	7205.97717736898	0
2	7680	7206.11597851856	1
2	7681	7207.550797790792	0
2	7695	7217.228538435889	1
2	7696	7217.792541241103	0
2	7715	7234.091103924905	1
2	7716	7234.437241468524	0
2	7745	7281.604049442318	1
2	7746	7282.005456229865	0
2	7765	7301.393508845798	1
2	7766	7303.10376491455	0
2	7770	7303.15635021718	1
2	7773	7304.797522637263	0
2	7777	7305.059129352891	1
2	7779	7306.022676900868	2
2	7781	7306.157628911984	3
2	7782	7306.26955720821	2
2	7785	7307.955790849603	1
2	7788	7309.838101680964	0
2	7792	7310.154377590901	1
2	7793	7311.108968403019	0
2	7797	7311.481433101352	1
2	7799	7312.742109127392	2
2	7800	7312.912982120752	1
2	7803	7314.535285499334	0
2	7820	7344.953550456683	1
2	7821	7346.170022893141	0
2	7862	7396.133804628411	1
2	7863	7397.667253236712	0
2	7867	7399.227249138348	1
2	7868	7399.430492663437	0
2	7910	7451.763199027602	1
2	7911	7452.381865311913	0
2	7920	7479.287058509457	1
2	7921	7480.740230878108	0
2	7960	7518.152209884812	1
2	7961	7519.500169425222	0
2	7975	7524.592499949908	1
2	7976	7525.381225776073	0
2	7995	7533.311176691891	1
2	7996	7534.573187287079	0
2	8030	7559.760184885243	1
2	8032	7560.064161774149	2
2	8033	7560.476624195085	1
2	8036	7562.173855580942	0
2	8050	7574.656346063828	1
2	8051	7575.371914875494	0
2	8060	7580.126387246108	1
2	8061	7580.277785993278	0
2	8067	7580.94011972602	1
2	8068	7581.572910653897	0
2	8072	7581.971354629896	1
2	8073	7582.981361833685	0
2	8090	7592.844880064085	1
2	8091	7593.801057672793	0
2	8135	7628.044696781337	1
2	8137	7628.091180923937	2
2	8138	7629.031203410246	1
2	8142	7629.122592836432	2
2	8143	7630.798301151798	1
2	8146	7632.76376739464	0
2	8150	7634.546337538239	1
2	8151	7634.572182214849	0
2	8235	7731.147908318127	1
2	8236	7732.748290252293	0
2	8240	7733.072846306868	1
2	8241	7734.523209372515	0
2	8255	7747.920220427116	1
2	8256	7749.574450609974	0
2	8300	7803.600858454854	1
2	8301	7803.678483123853	0
2	8340	7844.63434178104	1
2	8341	7845.332472837111	0
2	8405	7902.722109569468	1
2	8406	7902.852966544594	0
2	8420	7907.21528372321	1
2	8421	7907.974548013923	0
2	8440	7913.406809226219	1
2	8441	7914.085746145474	0
2	8475	7937.213896578752	1
2	8476	7937.717058246863	0
2	8480	7937.899914228319	1
2	8482	7938.430839911441	2
2	8483	7939.072164364998	1
2	8486	7940.28645601729	0
2	8490	7941.212196787015	1
2	8491	7941.990901944321	0
2	8505	7962.506087483278	1
2	8506	7962.863300783746	0
2	8515	7966.286701713915	1
2	8516	7966.646682035985	0
2	8520	7967.43183202734	1
2	8521	7967.895402981589	0
2	8560	7997.856014233253	1
2	8561	7998.680164667102	0
2	8590	8047.53748597455	1
2	8591	8047.931355910579	0
2	8605	8058.51799504372	1
2	8606	8058.715236070385	0
2	8615	8076.256649380235	1
2	8616	8076.769410533559	0
2	8635	8095.652237943314	1
2	8636	8096.793442921665	0
2	8645	8102.954660715312	1
2	8646	8104.189250193954	0
2	8655	8107.001486922307	1
2	8656	8108.184955596542	0
2	8675	8156.111040485098	1
2	8676	8157.748527681162	0
2	8697	8174.677597573325	1
2	8698	8175.600748555657	0
2	8705	8178.12599905153	1
2	8706	8178.837873656597	0
2	8715	8180.891612570922	1
2	8716	8182.534513168966	0
2	8745	8211.74519691494	1
2	8746	8212.666569146348	0
2	8755	8238.574528137109	1
2	8756	8239.291797586898	0
2	8780	8268.614778177082	1
2	8781	8270.327725650759	0
2	8810	8315.658097173528	1
2	8811	8315.912121817552	0
2	8815	8317.442789016472	1
2	8816	8317.751075488411	0
2	8865	8391.894301215841	1
2	8867	8392.53924362147	2
2	8868	8393.105641362803	1
2	8871	8395.016972267428	0
2	8880	8397.992754785738	1
2	8881	8398.513066261296	0
2	8910	8436.977048544244	1
2	8911	8437.332055771696	0
2	8955	8486.721720621725	1
2	8956	8486.966456103628	0
2	8990	8513.068800386297	1
2	8991	8514.425336350021	0
2	9000	8516.620356391532	1
2	9001	8517.341168214833	0
2	9040	8592.274893345361	1
2	9041	8593.519261529954	0
2	9050	8600.756669144647	1
2	9051	8601.720139838329	0
2	9065	8617.946092787387	1
2	9066	8618.501788974754	0
2	9120	8666.596567496675	1
2	9121	8666.89418478408	0
2	9145	8689.298762833566	1
2	9146	8689.757075873814	0
2	9160	8714.082594468275	1
2	9161	8714.802327126261	0
2	9180	8725.737651302299	1
2	9181	8727.235407788729	0
2	9185	8728.076832716995	1
2	9186	8728.497690715877	0
2	9215	8768.38427636837	1
2	9216	8769.195109064318	0
2	9230	8784.116284416801	1
2	9231	8784.730413951269	0
2	9235	8786.297167455949	1
2	9236	8786.712613079055	0
2	9280	8835.467426742131	1
2	9281	8837.284418037019	0
2	9340	8897.071148675187	1
2	9341	8897.544732273893	0
2	9345	8897.719715004043	1
2	9346	8898.946599396096	0
2	9355	8904.621148687173	1
2	9356	8905.357345547665	0
2	9385	8937.775056051727	1
2	9386	8938.611122722616	0
2	9390	8939.464883531554	1
2	9391	8939.893904479472	0
2	9410	8962.346540804015	1
2	9411	8962.413156938524	0
2	9430	8985.940845813304	1
2	9431	8987.056628264842	0
2	9465	9004.815332627623	1
2	9467	9004.985380698423	2
2	9470	9006.485149270668	1
2	9473	9007.762477585114	0
2	9495	9023.227022433015	1
2	9496	9023.452850828551	0
2	9525	9040.413012489521	1
2	9526	9040.859940734064	0
2	9530	9041.112510208823	1
2	9531	9042.529384623213	0
2	9545	9048.000430144331	1
2	9546	9048.184279103742	0
2	9560	9061.921442002945	1
2	9561	9063.497370406999	0
2	9600	9107.297095687337	1
2	9601	9108.133840642141	0
2	9605	9108.260258242214	1
2	9609	9109.746712014246	2
2	9610	9109.851470562646	1
2	9615	9111.392458892258	0
2	9624	9114.502896875068	1
2	9625	9114.993822463433	0
2	9632	9116.796133615864	1
2	9633	9118.605338452774	0
2	9645	9128.968952877369	1
2	9646	9129.43765964967	0
2	9675	9164.250713625619	1
2	9676	9164.337934129893	0
2	9690	9171.609181169068	1
2	9691	9171.984324653669	0
2	9695	9173.271023919576	1
2	9696	9173.826216056048	0
2	9720	9199.746582830973	1
2	9722	9199.989695024082	2
2	9723	9201.090323317432	1
2	9726	9202.56872597021	0
2	9810	9344.915593960707	1
2	9811	9346.077828381365	0
2	9817	9346.667470745121	1
2	9818	9347.734218276633	0
2	9822	9347.839320229783	1
2	9823	9348.944395013122	0
2	9827	9349.522242623514	1
2	9828	9350.307164435802	0
2	9835	9352.958425299677	1
2	9836	9352.963148074379	0
2	9850	9371.596727699156	1
2	9851	9373.157933621081	0
2	9860	9374.660641839621	1
2	9861	9375.970281379083	0
2	9870	9381.289868861914	1
2	9871	9381.527705024689	0
2	9875	9382.111673185025	1
2	9877	9382.28199665682	2
2	9878	9382.735598156549	1
2	9881	9384.381612837262	0
2	9890	9394.746454902415	1
2	9891	9394.952632482629	0
2	9925	9421.802941083198	1
2	9926	9422.21534617126	0
2	9995	9516.707742699906	1
2	9996	9518.330101124171	0
2	10050	9571.588980566079	1
2	10051	9571.959669101108	0
2	10065	9578.370689419658	1
2	10066	9578.640985698682	0
2	10075	9582.923518513775	1
2	10076	9584.019159913591	0
2	10090	9597.283005974945	1
2	10091	9598.734150246019	0
2	10095	9599.87379472209	1
2	10096	9600.326577481302	0
2	10100	9600.489453465164	1
2	10101	9602.048031308735	0
2	10110	9614.179165911436	1
2	10111	9615.649826945236	0
2	10132	9628.136486750232	1
2	10133	9628.440862082001	0
2	10140	9631.87629352969	1
2	10141	9631.888080516328	0
2	10147	9632.95074734687	1
2	10148	9633.61047203472	0
2	10165	9649.319494562235	1
2	10166	9650.017811073572	0
2	10170	9651.102144637212	1
2	10172	9651.132189595728	2
2	10173	9651.612186062173	1
2	10176	9653.45747684224	0
2	10180	9653.536915549832	1
2	10181	9655.271690997504	0
2	10185	9656.780720178672	1
2	10186	9656.839387986273	0
2	10210	9672.999842488695	1
2	10211	9673.860546572796	0
2	10215	9674.407062094889	1
2	10216	9675.539259665935	0
2	10220	9675.776978769919	1
2	10222	9675.782539259046	2
2	10223	9677.446374200388	1
2	10226	9679.278395850874	0
2	10275	9731.906481304844	1
2	10276	9732.445002043689	0
2	10285	9736.379579364127	1
2	10287	9737.13533083457	2
2	10289	9737.182377465445	3
2	10290	9738.055607696043	2
2	10293	9739.694770688729	1
2	10296	9741.594602167399	0
2	10335	9791.147226920711	1
2	10336	9792.524229251689	0
2	10340	9793.548479171598	1
2	10341	9793.98367052628	0
2	10355	9802.274132516286	1
2	10356	9802.459771979633	0
2	10360	9802.516394783168	1
2	10361	9803.887701363894	0
2	10365	9804.416741553506	1
2	10366	9805.857681672494	0
2	10375	9810.3520216666	1
2	10376	9810.498835049467	0
2	10400	9827.000768557898	1
2	10401	9827.205949926718	0
2	10435	9851.625922388179	1
2	10436	9852.452733916804	0
2	10445	9859.832739095952	1
2	10446	9860.597904356339	0
2	10450	9860.72626577328	1
2	10451	9861.905118428127	0
2	10485	9897.07489831569	1
2	10486	9898.260826515484	0
2	10515	9928.376001132955	1
2	10516	9929.269973754689	0
2	10545	9960.140777132428	1
2	10546	9961.271221123389	0
2	10550	9961.327698549028	1
2	10551	9962.877165960646	0
2	10555	9962.89063380183	1
2	10557	9963.878436558312	2
2	10558	9964.219773418209	1
2	10561	9965.666757702208	0
2	10580	9983.370866029788	1
2	10582	9983.42375642602	2
2	10583	9985.020058747818	1
2	10587	9986.30560535102	2
2	10588	9986.52829653236	1
2	10592	9987.155552598311	2
2	10593	9988.102237320383	1
2	10596	9989.456728405756	0
2	10605	9991.918112079959	1
2	10606	9993.753487918067	0
2	10640	10016.478736600487	1
2	10641	10016.559009185061	0
2	10665	10063.894296406371	1
2	10666	10064.973457192737	0
2	10680	10071.578136965949	1
2	10681	10072.697598531912	0
2	10690	10074.854423356201	1
2	10691	10076.210162194574	0
2	10695	10076.541958471786	1
2	10696	10077.608309343585	0
2	10702	10078.450633432611	1
2	10704	10078.933286174268	2
2	10705	10079.569315623434	1
2	10709	10080.70670792072	2
2	10710	10081.208401362167	1
2	10713	10082.900844977365	0
2	10725	10086.801612189641	1
2	10726	10087.749459864748	0
2	10740	10095.306921097566	1
2	10741	10096.565146999193	0
2	10775	10127.486828457703	1
2	10776	10128.950134802966	0
2	10810	10168.161977094422	1
2	10811	10168.406766044167	0
2	10815	10168.987218965262	1
2	10816	10169.69467685726	0
2	10845	10204.574147785836	1
2	10846	10205.760958777571	0
2	10865	10226.765812802955	1
2	10866	10228.19725956119	0
2	10870	10229.107836709681	1
2	10871	10229.778157466681	0
2	10900	10271.062974390151	1
2	10901	10271.227107054539	0
2	10910	10284.827295356409	1
2	10911	10286.321443007616	0
2	10915	10287.960607415565	1
2	10916	10287.978737941859	0
2	10925	10307.546573024965	1
2	10926	10308.646200392217	0
2	10930	10308.852124288429	1
2	10935	10310.359355321907	0
2	10939	10311.807247895433	1
2	10940	10311.940884654232	0
2	10944	10313.699513688177	1
2	10945	10313.841789535814	0
2	10965	10336.137905019457	1
2	10966	10336.184713711781	0
2	10975	10349.720862115446	1
2	10976	10351.230493661649	0
2	10980	10352.142097790531	1
2	10981	10352.711104263626	0
2	10985	10353.159818128771	1
2	10986	10354.09838157583	0
2	11005	10382.697994649219	1
2	11006	10383.485702686025	0
2	11055	10431.531075364574	1
2	11056	10431.871172562137	0
2	11085	10464.240770315258	1
2	11086	10464.676119144545	0
2	11092	10465.580462986518	1
2	11093	10466.63821795369	0
2	11100	10470.044779884286	1
2	11101	10470.076994182639	0
2	11105	10471.493940566871	1
2	11106	10471.706482265614	0
2	11115	10475.131886636954	1
2	11116	10475.236265390954	0
2	11165	10534.254776363436	1
2	11166	10534.632014426897	0
2	11250	10622.191348353413	1
2	11251	10623.12322638489	0
2	11255	10624.133365850471	1
2	11256	10624.378535903317	0
2	11260	10624.402309347866	1
2	11261	10626.074754794386	0
2	11300	10677.112855884689	1
2	11301	10677.839827002651	0
2	11325	10698.082397511247	1
2	11326	10698.994693275606	0
2	11385	10746.877488186272	1
2	11386	10747.726080563899	0
2	11405	10766.202356383085	1
2	11406	10767.011977058898	0
2	11440	10800.230023175905	1
2	11441	10801.878677960478	0
2	11455	10809.403900272405	1
2	11457	10809.806885763974	2
2	11458	10810.846718284457	1
2	11461	10812.057545126758	0
2	11465	10812.077800551272	1
2	11466	10813.32115237952	0
2	11470	10814.93114042488	1
2	11471	10815.234933366224	0
2	11485	10839.001235944163	1
2	11486	10839.367180338858	0
2	11495	10842.930943192201	1
2	11496	10843.361760929872	0
2	11535	10883.624809175785	1
2	11536	10884.434315905819	0
2	11555	10893.689217434908	1
2	11556	10895.057934442053	0
2	11562	10896.154186219164	1
2	11563	10896.76687292278	0
2	11600	10923.465149071375	1
2	11601	10923.828883887716	0
2	11615	10936.967285082901	1
2	11616	10938.214271788827	0
2	11700	11046.098948443728	1
2	11702	11046.422282248755	2
2	11703	11047.193417955514	1
2	11706	11049.030636533115	0
2	11712	11050.407963333731	1
2	11714	11050.578452452516	2
2	11716	11050.622590963259	3
2	11717	11050.785173718583	2
2	11720	11052.463804432515	1
2	11723	11053.957526484456	0
2	11730	11056.689019155392	1
2	11731	11056.707755861756	0
2	11735	11056.828789613906	1
2	11736	11058.506724876118	0
2	11745	11063.114558419824	1
2	11746	11063.307454668856	0
2	11752	11064.47148500016	1
2	11753	11064.920405249051	0
2	11830	11142.211138264222	1
2	11831	11143.046936713036	0
2	11870	11196.084597152093	1
2	11871	11197.265133968646	0
2	11920	11247.531494166708	1
2	11922	11247.793782344722	2
2	11923	11247.918048322529	1
2	11928	11249.901455773369	0
2	11932	11251.096925017959	1
2	11933	11251.319616594121	0
2	11937	11251.408880738891	1
2	11938	11252.969433169767	0
2	11942	11253.367457038914	1
2	11943	11254.930452321611	0
2	11955	11264.550188188789	1
2	11956	11265.719886735338	0
2	11975	11291.428219204288	1
2	11976	11292.080255618462	0
2	12005	11317.689220811229	1
2	12006	11318.553404476507	0
2	12010	11319.507213027695	1
2	12011	11319.802508645891	0
2	12065	11380.384291126065	1
2	12067	11380.82900857561	2
2	12068	11381.143501790235	1
2	12071	11382.687887838105	0
2	12080	11410.311666332831	1
2	12081	11411.219088184555	0
2	12100	11438.620977612087	1
2	12101	11439.209526361254	0
2	12120	11460.213610331135	1
2	12121	11460.774687201951	0
2	12165	11519.704804301369	1
2	12168	11520.946572422947	0
2	12180	11526.38788363593	1
2	12181	11527.743946541618	0
2	12210	11554.033061136916	1
2	12211	11554.763698292431	0
2	12220	11561.489114704034	1
2	12222	11561.563468898431	2
2	12223	11562.851864347404	1
2	12226	11564.588611604443	0
2	12235	11576.290656766508	1
2	12236	11576.743295415849	0
2	12240	11578.046723422089	1
2	12241	11578.653705194951	0
2	12260	11610.143880322505	1
2	12262	11610.172479786778	2
2	12263	11611.451734657374	1
2	12267	11612.39022572405	2
2	12269	11613.028273603235	3
2	12270	11613.424463260707	2
2	12274	11614.250741376879	3
2	12276	11614.274097761561	4
2	12277	11614.843827814769	3
2	12280	11616.196921200093	2
2	12284	11617.597838231838	3
2	12285	11617.644820522864	2
2	12289	11617.758045271277	3
2	12291	11618.232860152156	4
2	12292	11619.502177799654	3
2	12295	11621.347860212226	2
2	12298	11622.704945413743	1
2	12301	11623.999238174197	0
2	12320	11643.814626234679	1
2	12322	11644.370178105581	2
2	12323	11644.640257605581	1
2	12326	11645.926852469189	0
2	12345	11675.63188765301	1
2	12346	11675.788893351343	0
2	12350	11676.865438259186	1
2	12351	11677.176849131298	0
2	12365	11683.384042233081	1
2	12366	11683.547158341844	0
2	12370	11684.244687520651	1
2	12371	11684.856063404296	0
2	12415	11744.496748658221	1
2	12416	11744.744096353328	0
2	12420	11745.209470068924	1
2	12422	11746.153510313797	2
2	12423	11746.231824752553	1
2	12427	11746.87233827938	2
2	12428	11747.836279308474	1
2	12431	11749.52187571065	0
2	12435	11750.655774096964	1
2	12436	11751.381569390795	0
2	12485	11812.174557609045	1
2	12487	11812.208443905531	2
2	12488	11812.387408844316	1
2	12492	11813.330346731706	2
2	12493	11814.086122234473	1
2	12496	11815.679486782784	0
2	12505	11819.699561965071	1
2	12506	11819.766115155076	0
2	12525	11826.337741476753	1
2	12526	11827.062795618294	0
2	12550	11869.428180707194	1
2	12551	11870.336388034504	0
2	12575	11886.615567893009	1
2	12577	11887.883611025749	2
2	12578	11888.412754196098	1
2	12582	11889.925243289555	2
2	12583	11889.94906330405	1
2	12586	11891.260239413364	0
2	12590	11891.750601743304	1
2	12592	11891.851409577989	2
2	12595	11892.806991646981	1
2	12599	11892.810595225311	2
2	12602	11894.076705668105	1
2	12605	11895.506018266438	0
2	12625	11927.656229097714	1
2	12627	11928.43189591048	2
2	12628	11928.678910263262	1
2	12631	11930.057897849201	0
2	12680	11983.516436823378	1
2	12681	11985.379012947352	0
2	12690	11990.000332733744	1
2	12692	11990.80805802177	2
2	12693	11991.09022299025	1
2	12696	11992.527810745051	0
2	12715	12014.609720330112	1
2	12716	12015.920457672508	0
2	12720	12016.262650595109	1
2	12721	12017.547538987355	0
2	12735	12042.886970662188	1
2	12736	12044.002574030296	0
2	12775	12084.732475789696	1
2	12776	12084.976871991551	0
2	12810	12109.511407715627	1
2	12811	12110.308785536385	0
2	12840	12144.651338388764	1
2	12841	12144.660515805596	0
2	12845	12144.997338075303	1
2	12846	12146.196131789388	0
2	12850	12146.247141716342	1
2	12854	12147.136020013205	2
2	12856	12147.219595107053	3
2	12857	12147.99573082857	2
2	12860	12149.264004192019	1
2	12863	12150.510610528739	0
2	12867	12151.411687332951	1
2	12868	12151.821757829824	0
2	12875	12153.597546477837	1
2	12876	12154.39990106214	0
2	12890	12166.438447696848	1
2	12891	12167.672419560535	0
2	12900	12170.20228306398	1
2	12901	12171.535623037226	0
2	12920	12216.543811894697	1
2	12921	12216.853717495684	0
2	12930	12219.866693024746	1
2	12931	12220.5235595214	0
2	12970	12252.351004993693	1
2	12971	12253.304209562248	0
2	13030	12327.624056987263	1
2	13031	12329.036739514701	0
2	13035	12329.670717514887	1
2	13036	12330.499114020102	0
2	13050	12344.878796360483	1
2	13051	12344.91751713001	0
2	13080	12404.866274618548	1
2	13081	12404.963560594867	0
2	13095	12409.659428445376	1
2	13096	12409.8708656125	0
2	13145	12432.697370267467	1
2	13146	12433.420620423473	0
2	13150	12434.682038786066	1
2	13151	12435.361324537463	0
2	13175	12448.797821742833	1
2	13176	12449.148146146994	0
2	13180	12449.272710163798	1
2	13181	12451.135989380713	0
2	13195	12457.88485017217	1
2	13196	12459.042989776078	0
2	13205	12461.719807889043	1
2	13207	12462.273275413369	2
2	13208	12463.127555910372	1
2	13212	12464.677211296908	2
2	13213	12464.899764709235	1
2	13216	12466.718025850192	0
2	13240	12520.437981749195	1
2	13241	12521.271646912283	0
2	13245	12521.903995902857	1
2	13246	12522.763221558629	0
2	13275	12559.972683767254	1
2	13276	12561.366541980661	0
2	13285	12564.59520946137	1
2	13286	12565.473488494802	0
2	13320	12589.218747187935	1
2	13322	12590.277462067619	2
2	13324	12590.486569506936	3
2	13325	12590.844260823946	2
2	13329	12591.092788838234	3
2	13330	12592.293561388026	2
2	13333	12593.890340780127	1
2	13336	12595.43343894783	0
2	13340	12595.823770359186	1
2	13342	12596.220507030764	2
2	13343	12597.182546720501	1
2	13347	12597.892270180118	2
2	13348	12598.47155562121	1
2	13352	12599.8057094549	2
2	13353	12600.219641780328	1
2	13357	12600.346003999513	2
2	13358	12601.988655152578	1
2	13361	12603.538533953425	0
2	13380	12651.588947529968	1
2	13381	12651.955405517486	0
2	13410	12665.451972750283	1
2	13411	12666.885007714348	0
2	13425	12683.975724853014	1
2	13426	12685.178128019382	0
2	13430	12686.111010378993	1
2	13432	12686.637021232837	2
2	13433	12686.756221687083	1
2	13436	12688.6829668593	0
2	13475	12756.440863653887	1
2	13476	12756.919674146775	0
2	13515	12811.894813396502	1
2	13516	12812.168036849683	0
2	13542	12869.817210548898	1
2	13543	12869.849229572885	0
2	13575	12895.971368405378	1
2	13577	12896.050003342059	2
2	13578	12896.65525571227	1
2	13582	12898.315123912863	2
2	13583	12898.394498149752	1
2	13586	12900.132065926194	0
2	13615	12932.974483766856	1
2	13616	12933.857631377561	0
2	13637	12955.21395793873	1
2	13638	12955.831387526877	0
2	13642	12956.787019851821	1
2	13643	12957.090901910849	0
2	13650	12959.474672418379	1
2	13651	12960.732758311704	0
2	13655	12961.226175440634	1
2	13658	12962.169154495895	0
2	13670	12969.287038155258	1
2	13671	12971.055783235106	0
2	13685	12977.148457238254	1
2	13686	12978.368345036254	0
2	13715	13002.816169377038	1
2	13716	13003.30034396258	0
2	13750	13047.892812209713	1
2	13752	13048.391978951812	2
2	13753	13049.00846343652	1
2	13756	13050.259650229259	0
2	13760	13050.402700280227	1
2	13761	13051.980679563402	0
2	13770	13054.000464430486	1
2	13772	13054.048798448743	2
2	13774	13054.141879665287	3
2	13775	13055.613770993427	2
2	13778	13056.891548726149	1
2	13781	13058.708627730236	0
2	13792	13067.3154239153	1
2	13793	13068.07837280709	0
2	13797	13069.929994707123	1
2	13798	13070.020911675167	0
2	13810	13076.654575734706	1
2	13811	13077.262002400736	0
2	13825	13093.168347188322	1
2	13826	13093.537138382167	0
2	13830	13094.864473307619	1
2	13831	13095.356958605357	0
2	13845	13101.387016017241	1
2	13848	13102.693424186993	0
2	13865	13108.340174917625	1
2	13866	13109.402860226252	0
2	13922	13159.810432272001	1
2	13924	13159.820789741767	2
2	13925	13160.131968925457	1
2	13929	13160.269443381554	2
2	13930	13161.462760898593	1
2	13933	13163.038609648246	0
2	13945	13166.830863652738	1
2	13946	13168.170883033574	0
2	13960	13176.773046736456	1
2	13961	13177.172679132836	0
2	13965	13178.022508773206	1
2	13966	13178.987677630836	0
2	13980	13190.946020847212	1
2	13981	13192.173564557275	0
2	13985	13192.316617982046	1
2	13986	13193.398263964346	0
2	13990	13194.61053695256	1
2	13991	13195.183818953587	0
2	14015	13222.75596742924	1
2	14016	13223.932913141519	0
2	14035	13250.771973807336	1
2	14036	13251.617275835863	0
2	14065	13297.014347911628	1
2	14066	13298.568627828276	0
2	14092	13315.873528584434	1
2	14093	13316.082961573381	0
2	14115	13325.64300373436	1
2	14118	13326.537491239158	0
2	14130	13337.90547712259	1
2	14132	13337.923120668714	2
2	14133	13338.042853366301	1
2	14137	13338.185057092302	2
2	14138	13339.333548354261	1
2	14141	13341.010608196721	0
2	14150	13344.049317820498	1
2	14151	13344.886798449234	0
2	14160	13348.915042907841	1
2	14161	13349.562020641329	0
2	14175	13363.594572554903	1
2	14176	13364.762520438714	0
2	14180	13365.560768669382	1
2	14182	13365.843644925392	2
2	14183	13366.335373095145	1
2	14187	13366.8525619222	2
2	14190	13368.081956328919	1
2	14194	13368.092379459757	2
2	14195	13369.308194322979	1
2	14198	13371.263356065286	0
2	14235	13406.310007840974	1
2	14236	13406.80600483086	0
2	14275	13444.237574210246	1
2	14276	13444.380552966527	0
2	14290	13456.375690972621	1
2	14291	13456.569038628467	0
2	14355	13557.387793649845	1
2	14356	13557.969015665744	0
2	14365	13560.451270293177	1
2	14366	13561.787195630814	0
2	14370	13562.625316721883	1
2	14373	13563.649644744466	0
2	14395	13586.579970018056	1
2	14396	13586.771509783737	0
2	14405	13589.237952630482	1
2	14406	13590.377195623092	0
2	14410	13590.756387890355	1
2	14412	13591.255173184549	2
2	14414	13591.339431363274	3
2	14415	13592.344717520423	2
2	14418	13593.907612713188	1
2	14421	13595.504381569423	0
2	14460	13654.160203273714	1
2	14461	13655.008586923639	0
2	14480	13664.16850254441	1
2	14481	13665.036015659932	0
2	14515	13685.350352877755	1
2	14516	13686.442697399039	0
2	14535	13692.92003997775	1
2	14536	13693.829110448129	0
2	14560	13703.235371621104	1
2	14561	13703.801106669853	0
2	14565	13704.71453343172	1
2	14566	13705.077441482904	0
2	14590	13742.337347377736	1
2	14591	13743.748540426418	0
2	14615	13764.384578609087	1
2	14617	13764.457742762734	2
2	14619	13765.572519832849	3
2	14620	13765.783671471545	2
2	14623	13767.19674751635	1
2	14626	13768.480148316988	0
2	14655	13797.302613004426	1
2	14656	13798.746647420791	0
2	14715	13863.81903102119	1
2	14717	13864.442957402646	2
2	14718	13865.587334606148	1
2	14722	13866.864985751867	2
2	14723	13866.945011392891	1
2	14727	13867.315271906147	2
2	14729	13867.442484218836	3
2	14730	13868.322026280783	2
2	14733	13870.017658874303	1
2	14736	13871.61669326397	0
2	14740	13872.031719360626	1
2	14742	13873.331536529301	2
2	14743	13873.504090095967	1
2	14747	13874.494446643515	2
2	14748	13874.922912317052	1
2	14751	13876.145797544255	0
2	14770	13892.958912565792	1
2	14771	13894.561217939059	0
2	14785	13902.27023148786	1
2	14786	13903.075536339756	0
2	14795	13906.205911083001	1
2	14798	13907.456271920421	0
2	14805	13909.812809922072	1
2	14808	13910.451681331054	0
2	14840	13925.608081951377	1
2	14841	13926.108728371778	0
2	14845	13926.360113896697	1
2	14846	13927.872984263891	0
2	14865	13937.467157954662	1
2	14866	13937.517951599721	0
2	14895	13958.79541536116	1
2	14896	13960.03050260241	0
2	14950	14039.424081665273	1
2	14951	14039.6661130727	0
2	15005	14097.36304547781	1
2	15006	14098.35381571092	0
2	15035	14135.354634462828	1
2	15037	14135.920196974279	2
2	15038	14136.513800464603	1
2	15041	14138.442362330141	0
2	15080	14177.219181900364	1
2	15081	14178.696534049682	0
2	15155	14286.588675463033	1
2	15156	14288.066662261668	0
2	15180	14321.478123104788	1
2	15181	14322.166302341618	0
2	15265	14453.589391187892	1
2	15267	14454.162857951284	2
2	15268	14454.302766455111	1
2	15271	14455.582826808986	0
2	15295	14480.084903887618	1
2	15297	14480.303325633581	2
2	15298	14480.932377715292	1
2	15302	14481.326487880288	2
2	15304	14482.349071610061	3
2	15305	14482.478284358303	2
2	15309	14484.241344570396	3
2	15310	14484.347759552742	2
2	15313	14485.831137088756	1
2	15317	14486.749404385363	2
2	15318	14487.409480572934	1
2	15321	14488.850056790258	0
2	15355	14524.457286527038	1
2	15356	14525.048969796265	0
2	15375	14540.141637882595	1
2	15376	14541.142968249769	0
2	15440	14610.094109911968	1
2	15441	14611.501615415035	0
2	15460	14628.607765902681	1
2	15462	14629.150472800841	2
2	15463	14629.241644773681	1
2	15466	14630.671353362736	0
2	15540	14677.310289571143	1
2	15541	14678.384945121484	0
2	15550	14680.209473812451	1
2	15552	14680.7916749079	2
2	15553	14682.116068011599	1
2	15558	14683.736293451751	0
2	15562	14684.164417699624	1
2	15564	14684.544242503997	2
2	15566	14685.258840604449	3
2	15567	14685.559836246336	2
2	15571	14685.841168305778	3
2	15572	14687.155776532071	2
2	15575	14688.730931037555	1
2	15578	14690.182125393192	0
2	15582	14690.542270996928	1
2	15583	14691.808622419352	0
2	15587	14691.819329149619	1
2	15588	14693.504432901072	0
2	15592	14693.513473457114	1
2	15593	14694.774303241524	0
2	15597	14695.046728942992	1
2	15599	14696.112899126822	2
2	15600	14696.546502288695	1
2	15604	14696.772654076045	2
2	15605	14698.414984486702	1
2	15608	14700.393713921013	0
2	15612	14700.755801819929	1
2	15613	14701.750875527116	0
2	15617	14702.102254338324	1
2	15618	14703.723516467104	0
2	15625	14706.293835848463	1
2	15626	14707.114851976449	0
2	15680	14751.17526804858	1
2	15681	14751.176907933562	0
2	15690	14768.636617078501	1
2	15691	14768.877034119719	0
2	15715	14790.667483597373	1
2	15716	14791.022398180957	0
2	15725	14820.758098235229	1
2	15726	14820.812990979231	0
2	15732	14822.57325628616	1
2	15733	14822.623462180174	0
2	15760	14845.951415163688	1
2	15761	14846.548299123827	0
2	15805	14911.442468325946	1
2	15806	14912.528910412756	0
2	15820	14918.930346271391	1
2	15821	14919.459850138869	0
2	15865	15017.579614603412	1
2	15866	15018.19651202092	0
2	15870	15019.062576781011	1
2	15871	15019.477972020377	0
2	15885	15033.100941510832	1
2	15886	15034.293609677179	0
2	15890	15034.544927862741	1
2	15891	15035.757792085706	0
2	15895	15036.035497105145	1
2	15896	15037.104941148421	0
2	15920	15061.155601582326	1
2	15921	15062.201342716663	0
2	15945	15083.483549070721	1
2	15946	15084.472322209842	0
2	16020	15170.445375394556	1
2	16021	15172.231283480779	0
2	16025	15172.349471519947	1
2	16027	15173.449286135957	2
2	16028	15173.870986258157	1
2	16031	15175.21309709932	0
2	16055	15203.466970201625	1
2	16056	15203.529448639823	0
2	16060	15204.437994034195	1
2	16061	15205.128002221545	0
2	16095	15228.103484730086	1
2	16096	15229.146093653421	0
2	16100	15229.300717970915	1
2	16101	15230.504791117366	0
2	16110	15236.547417869912	1
2	16111	15237.963582518247	0
2	16125	15257.282464302053	1
2	16126	15258.677268251851	0
2	16140	15269.564433674983	1
2	16141	15269.701919061607	0
2	16150	15271.738836233775	1
2	16151	15272.923909791848	0
2	16205	15366.633928022338	1
2	16206	15367.177998640149	0
2	16230	15387.552269811215	1
2	16231	15388.60747193943	0
2	16255	15418.342903916882	1
2	16256	15418.949768459565	0
2	16270	15443.705617007533	1
2	16271	15444.929248273225	0
2	16310	15492.051533605261	1
2	16311	15493.860655682127	0
2	16315	15494.345685291318	1
2	16317	15494.535570783222	2
2	16318	15495.72677406628	1
2	16321	15497.501317314397	0
2	16325	15497.562797540857	1
2	16327	15497.705108108901	2
2	16328	15498.791910242814	1
2	16331	15500.664665307629	0
2	16335	15501.314028530967	1
2	16336	15502.416495681147	0
2	16400	15563.8439431517	1
2	16401	15565.321923311443	0
2	16410	15570.52163506129	1
2	16411	15571.700333298823	0
2	16420	15575.621956009261	1
2	16421	15576.649107696087	0
2	16425	15577.438297350836	1
2	16426	15578.402677331277	0
2	16450	15598.0917005635	1
2	16451	15599.790709370052	0
2	16500	15667.393304924438	1
2	16501	15667.78620320466	0
2	16515	15675.437172127288	1
2	16516	15676.432616015068	0
2	16525	15679.747354286177	1
2	16527	15680.862512068028	2
2	16528	15680.933150113035	1
2	16531	15682.39716046996	0
2	16565	15724.499578209289	1
2	16566	15724.963884531836	0
2	16625	15805.425661327812	1
2	16626	15806.589248614413	0
2	16660	15841.462268917639	1
2	16661	15842.645884035256	0
2	16675	15860.664724311484	1
2	16676	15860.761806331452	0
2	16695	15871.903241794143	1
2	16696	15872.329858283489	0
2	16720	15899.402139502672	1
2	16721	15900.468355556799	0
2	16745	15926.265896461228	1
2	16746	15927.07871797729	0
2	16750	15927.166852822576	1
2	16751	15928.561335485724	0
2	16755	15928.619264265143	1
2	16758	15929.891694975381	0
2	16762	15930.800777513179	1
2	16763	15931.497331164141	0
2	16795	15971.669618467057	1
2	16796	15972.839989378257	0
2	16845	16033.032480052301	1
2	16846	16034.599404107719	0
2	16870	16055.442498460702	1
2	16871	16055.720308354783	0
2	16880	16073.922730321085	1
2	16881	16074.160932287225	0
2	16885	16074.723569623027	1
2	16886	16075.616928241053	0
2	16895	16079.543287318434	1
2	16896	16080.73819747053	0
2	16925	16117.398508724926	1
2	16927	16118.100719913911	2
2	16929	16118.130442874847	3
2	16930	16118.830431448766	2
2	16934	16120.352851655993	3
2	16935	16120.624344162554	2
2	16938	16121.829211250417	1
2	16941	16123.095889474176	0
2	16945	16124.442419532575	1
2	16946	16124.835003781043	0
2	16950	16124.887988264651	1
2	16952	16125.812692882919	2
2	16953	16126.195478300288	1
2	16956	16127.983658070959	0
2	16960	16128.688540960482	1
2	16961	16129.431661314614	0
2	16970	16131.926029178244	1
2	16971	16132.99030551622	0
2	16985	16140.283529072003	1
2	16986	16141.157702316832	0
2	16990	16142.066066022296	1
2	16991	16143.135080229979	0
2	17010	16163.510425718481	1
2	17011	16164.460657054958	0
2	17025	16176.948112276281	1
2	17026	16177.765049065549	0
2	17045	16189.4595533242	1
2	17046	16190.192252061043	0
2	17085	16244.83423431581	1
2	17086	16245.113272883473	0
2	17105	16266.626251590564	1
2	17106	16267.207513482896	0
2	17115	16281.104978210124	1
2	17116	16281.668727309286	0
2	17165	16351.792218391149	1
2	17166	16353.088670615225	0
2	17170	16354.398407259242	1
2	17171	16354.676518734849	0
2	17175	16355.216276853313	1
2	17176	16355.964038528993	0
2	17192	16361.324622157532	1
2	17193	16361.445736036055	0
2	17215	16373.553854814161	1
2	17216	16373.741958727804	0
2	17220	16375.258017569106	1
2	17221	16375.467788193119	0
2	17230	16380.157736728404	1
2	17231	16380.580556122399	0
2	17255	16400.046987106898	1
2	17256	16401.45885061291	0
2	17280	16414.712575406928	1
2	17281	16415.299317837696	0
2	17285	16415.907249093997	1
2	17286	16417.271647971872	0
2	17290	16417.451880322385	1
2	17291	16419.050802651424	0
2	17295	16420.218687044003	1
2	17296	16420.284317957241	0
2	17300	16421.204352756853	1
2	17302	16421.595718426577	2
2	17303	16422.171256606471	1
2	17306	16423.382047393549	0
2	17322	16429.514823226117	1
2	17323	16430.47929260439	0
2	17330	16432.290472895175	1
2	17331	16433.184901805844	0
2	17360	16463.982587642073	1
2	17361	16465.636940028683	0
2	17367	16467.354968321214	1
2	17368	16467.460355816015	0
2	17372	16467.534197548117	1
2	17373	16468.935852204801	0
2	17377	16469.284509278984	1
2	17378	16470.71422864923	0
2	17400	16477.471832125314	1
2	17402	16478.481105388244	2
2	17403	16479.042854776463	1
2	17406	16480.362846174879	0
2	17460	16556.818863353017	1
2	17461	16557.990326280566	0
2	17465	16558.31954350819	1
2	17466	16559.474889600696	0
2	17500	16596.267700750882	1
2	17501	16596.746320804712	0
2	17535	16653.721277025513	1
2	17536	16654.597486653876	0
2	17540	16655.671136489249	1
2	17541	16656.201707896542	0
2	17550	16666.516998725469	1
2	17551	16666.848495726859	0
2	17565	16675.455453170624	1
2	17566	16676.123855430102	0
2	17575	16678.570338464051	1
2	17576	16679.178485738009	0
2	17600	16729.124121570402	1
2	17601	16729.938121203817	0
2	17610	16732.637652454852	1
2	17611	16733.741263673101	0
2	17615	16734.73686926939	1
2	17616	16735.123375491072	0
2	17620	16735.395600404429	1
2	17621	16736.533622801323	0
2	17625	16738.005505332776	1
2	17626	16738.088923948464	0
2	17650	16769.620678858488	1
2	17651	16769.749622931808	0
2	17680	16816.398270071213	1
2	17682	16816.807883233382	2
2	17683	16816.934794765444	1
2	17686	16818.253402624385	0
2	17700	16825.80642931507	1
2	17701	16826.729325081213	0
2	17705	16827.046521348849	1
2	17707	16828.043658633422	2
2	17708	16828.064218017823	1
2	17711	16829.859826469227	0
2	17715	16830.547122799504	1
2	17716	16831.642353029914	0
2	17720	16833.216860070267	1
2	17721	16833.518924004577	0
2	17740	16842.503740186843	1
2	17741	16843.687001688145	0
2	17755	16851.507880759619	1
2	17756	16852.387895206525	0
2	17765	16858.985371370775	1
2	17766	16859.671651280578	0
2	17770	16860.082870805152	1
2	17771	16860.891208935063	0
2	17810	16896.147510388866	1
2	17811	16897.249596656639	0
2	17815	16898.214551871063	1
2	17816	16899.152889168229	0
2	17825	16901.763376861972	1
2	17828	16902.583270718015	0
2	17835	16904.636230508495	1
2	17837	16904.872850680162	2
2	17838	16905.568104268096	1
2	17841	16907.254645200304	0
2	17935	17020.295178090885	1
2	17936	17020.434722921086	0
2	17960	17055.443522897481	1
2	17961	17056.328022639838	0
2	17975	17065.220323625428	1
2	17977	17066.157058263972	2
2	17978	17066.900155711934	1
2	17982	17068.134521581765	2
2	17983	17068.619899650678	1
2	17987	17068.68863284433	2
2	17989	17069.30011729361	3
2	17991	17070.234154357825	4
2	17992	17070.317764451556	3
2	17996	17071.381895735639	4
2	17997	17072.209586032681	3
2	18001	17073.491764477707	4
2	18002	17074.06767313575	3
2	18005	17075.481786789387	2
2	18008	17077.188610785096	1
2	18011	17078.54846314007	0
2	18020	17082.525088635409	1
2	18023	17083.603163095258	0
2	18060	17153.312617725066	1
2	18061	17153.5479760998	0
2	18070	17155.246236496274	1
2	18072	17156.640080123803	2
2	18073	17156.792986603368	1
2	18077	17156.793010962807	2
2	18078	17158.05106576002	1
2	18082	17158.827323782409	2
2	18083	17159.930476657588	1
2	18087	17161.130872857555	2
2	18088	17161.266136763532	1
2	18091	17162.817693180878	0
2	18110	17175.666000459659	1
2	18111	17176.003883753983	0
2	18115	17177.135507840914	1
2	18118	17177.513442736385	0
2	18140	17191.807062117636	1
2	18141	17191.812279551364	0
2	18150	17201.795458000675	1
2	18151	17202.36831914791	0
2	18165	17207.568508177267	1
2	18166	17208.023705950174	0
2	18180	17229.17427391519	1
2	18181	17229.410056168649	0
2	18190	17232.333101349112	1
2	18191	17233.89597807426	0
2	18195	17234.245637153142	1
2	18197	17234.401240757108	2
2	18199	17234.56810525771	3
2	18200	17235.533293125145	2
2	18204	17236.074975985245	3
2	18206	17236.510685449015	4
2	18207	17236.7578558366	3
2	18210	17238.036129001081	2
2	18213	17239.263044303209	1
2	18216	17241.029968546071	0
2	18240	17262.293387846284	1
2	18241	17263.546120804224	0
2	18245	17264.034712108587	1
2	18246	17265.435731719296	0
2	18275	17284.421662770086	1
2	18276	17285.81343508451	0
2	18290	17291.812963334797	1
2	18291	17293.426320809255	0
2	18335	17325.509295754621	1
2	18336	17326.096980611414	0
2	18352	17336.642743068691	1
2	18353	17338.139139655786	0
2	18405	17405.646036852996	1
2	18406	17406.192533990817	0
2	18432	17429.48815120139	1
2	18434	17430.228018359157	2
2	18435	17430.668622716331	1
2	18438	17432.214756789059	0
2	18442	17432.3162170409	1
2	18444	17433.362580390065	2
2	18445	17433.619286767394	1
2	18448	17435.399711290934	0
2	18485	17456.599432647301	1
2	18486	17457.259551045524	0
2	18495	17459.937765363583	1
2	18496	17460.886266238885	0
2	18500	17461.073495352439	1
2	18501	17462.767206737483	0
2	18525	17475.47000797383	1
2	18526	17476.606818729837	0
2	18550	17502.027927362807	1
2	18551	17502.363396379622	0
2	18555	17503.169374014705	1
2	18556	17503.627954771081	0
2	18600	17561.206496589883	1
2	18601	17561.878657348722	0
2	18605	17562.887750659033	1
2	18606	17563.397483800806	0
2	18610	17563.505841330999	1
2	18611	17565.027324277617	0
2	18625	17582.860170970542	1
2	18626	17583.207500504192	0
2	18630	17584.023443331416	1
2	18632	17584.749614211217	2
2	18633	17584.793610993449	1
2	18636	17586.17803361011	0
2	18640	17587.355191573911	1
2	18641	17588.098717010257	0
2	18645	17588.323866750429	1
2	18646	17589.371290666101	0
2	18650	17590.462537292886	1
2	18651	17590.602500644749	0
2	18665	17601.2508557994	1
2	18666	17602.510316277199	0
2	18670	17602.610456713789	1
2	18671	17604.04968350222	0
2	18675	17604.194384043057	1
2	18676	17605.846101602257	0
2	18680	17606.258938842517	1
2	18681	17607.501785219923	0
2	18730	17664.894833914536	1
2	18731	17665.58051626348	0
2	18740	17668.337951469858	1
2	18741	17669.47286479046	0
2	18750	17672.751031644536	1
2	18751	17673.788138383402	0
2	18760	17683.687907015391	1
2	18761	17684.50879418254	0
2	18770	17689.747174821498	1
2	18771	17690.837782515395	0
2	18825	17783.166205467428	1
2	18827	17784.219306551093	2
2	18828	17784.369825288082	1
2	18831	17785.863560176814	0
2	18850	17807.003148379977	1
2	18851	17807.243904470479	0
2	18860	17810.62440086726	1
2	18861	17811.268222813616	0
2	18885	17832.314270117955	1
2	18887	17832.560470738978	2
2	18888	17832.738278807454	1
2	18891	17834.298788748436	0
2	18895	17834.950003660977	1
2	18896	17835.67511310497	0
2	18900	17836.376803636138	1
2	18901	17837.280232069024	0
2	18957	17885.054293199638	1
2	18958	17885.135461876463	0
2	18990	17965.79044597046	1
2	18991	17966.015209961335	0
2	18995	17966.485483046408	1
2	18996	17967.51810984167	0
2	19020	17980.432287521142	1
2	19021	17981.111035157163	0
2	19035	17990.637069579948	1
2	19036	17991.506018126809	0
2	19055	18000.434476693603	1
2	19056	18001.554574743036	0
2	19065	18006.344824405687	1
2	19067	18006.482983302993	2
2	19068	18007.227988677396	1
2	19072	18007.831451995906	2
2	19074	18008.086053079448	3
2	19075	18008.666418591997	2
2	19079	18009.101083842089	3
2	19080	18010.308373976423	2
2	19083	18011.609037481545	1
2	19086	18012.821629414632	0
2	19105	18039.330437643622	1
2	19106	18041.186073858966	0
2	19125	18061.25865726768	1
2	19126	18062.439547006247	0
2	19130	18063.310027365331	1
2	19131	18064.039903321323	0
2	19135	18064.66598194914	1
2	19136	18065.716135629286	0
2	19150	18085.840979209836	1
2	19151	18086.265978761921	0
2	19165	18099.291005809597	1
2	19166	18099.783719304901	0
2	19195	18122.350586736264	1
2	19196	18123.276210886677	0
2	19212	18128.347722599051	1
2	19213	18128.639245639168	0
2	19219	18130.020830031883	1
2	19220	18130.426948530026	0
2	19230	18135.561250686111	1
2	19231	18135.61962897385	0
2	19247	18140.531517833392	1
2	19248	18141.020430073397	0
2	19260	18155.705071588782	1
2	19261	18156.356290274959	0
2	19280	18164.482287150739	1
2	19281	18165.842680187972	0
2	19295	18180.248743479835	1
2	19296	18180.293951750217	0
2	19305	18183.180316322362	1
2	19306	18184.13435129387	0
2	19330	18212.746583228537	1
2	19331	18212.7879651927	0
2	19335	18213.001123678784	1
2	19336	18214.410528652983	0
2	19340	18214.557188125989	1
2	19341	18215.776078958119	0
2	19360	18244.521537410468	1
2	19362	18244.608829518848	2
2	19363	18244.756495089262	1
2	19367	18245.383377452917	2
2	19368	18246.425813918739	1
2	19371	18248.048812440775	0
2	19375	18249.966173616844	1
2	19376	18250.022051775075	0
2	19380	18250.400712206449	1
2	19381	18251.622587986655	0
2	19385	18252.713480650923	1
2	19386	18253.613658911168	0
2	19445	18327.918354618979	1
2	19446	18328.829741339149	0
2	19470	18352.169066205448	1
2	19471	18353.255529394338	0
2	19490	18377.159230391199	1
2	19491	18377.891581267151	0
2	19500	18379.81292609441	1
2	19501	18381.464720489466	0
2	19510	18384.495988716015	1
2	19511	18385.02405917434	0
2	19540	18403.991222708851	1
2	19541	18404.610638944256	0
2	19570	18436.342292664062	1
2	19571	18436.388535655607	0
2	19575	18436.549233305201	1
2	19577	18437.175852191003	2
2	19578	18438.058551882338	1
2	19581	18439.865276424904	0
2	19585	18440.644286696814	1
2	19586	18441.674410353732	0
2	19605	18474.528121945889	1
2	19606	18475.970119000169	0
2	19615	18481.120770895984	1
2	19618	18482.80539421701	0
2	19622	18482.821660602508	1
2	19623	18484.267121227282	0
2	19627	18485.0079751154	1
2	19628	18485.512763948749	0
2	19635	18488.420929607002	1
2	19636	18488.739004120614	0
2	19655	18509.092114807958	1
2	19656	18509.325970424427	0
2	19715	18567.000996884741	1
2	19716	18567.282367268971	0
2	19745	18600.120265489017	1
2	19746	18600.808572752815	0
2	19795	18681.511847224011	1
2	19796	18682.138036533638	0
2	19800	18682.770379030811	1
2	19801	18683.676232642501	0
2	19805	18684.021373601386	1
2	19806	18684.923842042505	0
2	19810	18686.37387500199	1
2	19811	18686.650463924936	0
2	19850	18770.43445812744	1
2	19851	18770.866097337559	0
2	19870	18797.077043937586	1
2	19871	18797.311712425207	0
2	19885	18808.92001179037	1
2	19886	18809.261319263815	0
2	19945	18912.947765150874	1
2	19946	18913.51826259412	0
2	19977	18943.909358263491	1
2	19978	18944.383044263985	0
2	19985	18946.832033502884	1
2	19987	18947.751612442474	2
2	19988	18947.870534847941	1
2	19991	18949.471032916274	0
2	20035	19006.826984075957	1
2	20036	19007.722342952806	0
2	20075	19049.702334580363	1
2	20076	19050.288064354544	0
2	20120	19096.185244962968	1
2	20121	19096.60158705397	0
2	20125	19096.899905914853	1
2	20126	19097.95615438132	0
2	20135	19102.128484967526	1
2	20136	19102.302816927186	0
2	20140	19103.494420338844	1
2	20141	19104.002860362953	0
2	20170	19130.510330696921	1
2	20171	19131.026815260708	0
2	20195	19152.966245076525	1
2	20196	19154.208863940139	0
2	20240	19206.194403815343	1
2	20241	19207.056661719892	0
2	20245	19207.444344807825	1
2	20246	19208.877623862278	0
2	20255	19216.854949749327	1
2	20256	19217.625072698172	0
2	20265	19229.333371040168	1
2	20266	19229.987783777966	0
2	20280	19241.281083843914	1
2	20281	19242.263887194805	0
2	20310	19259.241024988578	1
2	20311	19259.501395946264	0
2	20360	19330.227834783273	1
2	20361	19331.381323030604	0
2	20405	19369.184500063188	1
2	20406	19369.40611939305	0
2	20450	19416.964415902844	1
2	20451	19417.751524906906	0
2	20460	19422.144231062643	1
2	20462	19422.770297138353	2
2	20463	19423.360981859377	1
2	20466	19425.320344305335	0
2	20500	19465.264848649464	1
2	20501	19466.54113482452	0
2	20537	19499.530460085499	1
2	20538	19499.757332161706	0
2	20542	19500.889705148358	1
2	20543	19501.591786572043	0
2	20549	19503.005682496417	1
2	20550	19503.42686303005	0
2	20554	19504.287701748292	1
2	20555	19505.015904758949	0
2	20559	19506.64399465311	1
2	20560	19506.657419552919	0
2	20610	19550.346308530439	1
2	20611	19550.980058101229	0
2	20620	19553.235557129717	1
2	20621	19554.33814739272	0
2	20635	19568.397607341919	1
2	20637	19568.798505036387	2
2	20638	19569.86120598999	1
2	20641	19571.342294380005	0
2	20720	19712.03410625906	1
2	20722	19712.092872089225	2
2	20723	19713.519305576381	1
2	20726	19715.17108964659	0
2	20740	19726.476913010265	1
2	20741	19727.353814174105	0
2	20785	19779.255212558215	1
2	20786	19779.812399801447	0
2	20790	19780.293637368218	1
2	20791	19781.589536692037	0
2	20795	19783.535887507195	1
2	20796	19783.55142511504	0
2	20835	19834.001709407796	1
2	20837	19834.145610638075	2
2	20838	19835.259598071101	1
2	20841	19837.133158715228	0
2	20865	19868.130970370576	1
2	20868	19869.108172446002	0
2	20872	19869.9098800375	1
2	20873	19870.656667374891	0
2	20980	19958.976218477051	1
2	20982	19959.133137387477	2
2	20983	19960.334560892152	1
2	20986	19961.581891258786	0
2	21005	19988.989636902949	1
2	21006	19989.920974786873	0
2	21025	19997.142096807334	1
2	21027	19997.922270092691	2
2	21028	19998.52497921004	1
2	21031	20000.464800517029	0
2	21040	20009.545847740477	1
2	21041	20010.254724078106	0
2	21135	20091.034937081424	1
2	21136	20092.425407074443	0
2	21140	20093.157873156513	1
2	21141	20094.266821162826	0
2	21155	20104.202794642693	1
2	21157	20104.417077534521	2
2	21158	20105.701572720605	1
2	21161	20107.176665694538	0
2	21165	20108.403989915737	1
2	21166	20108.841376452233	0
2	21185	20130.880454983466	1
2	21186	20131.48589581942	0
2	21190	20132.028346079669	1
2	21191	20133.455785918811	0
2	21205	20149.488218891814	1
2	21206	20149.925608551806	0
2	21235	20182.941270849762	1
2	21236	20183.607250452603	0
2	21245	20189.292343982745	1
2	21246	20189.431274856532	0
2	21265	20204.45869381001	1
2	21266	20205.951080070847	0
2	21355	20363.184684998316	1
2	21356	20364.754545752898	0
2	21400	20396.120335508915	1
2	21402	20396.895924184683	2
2	21403	20397.200550619634	1
2	21406	20398.548931057314	0
2	21435	20419.662612690716	1
2	21436	20421.475923392409	0
2	21445	20425.898050608632	1
2	21446	20427.137777306572	0
2	21455	20430.00042438535	1
2	21457	20430.196899014857	2
2	21458	20430.693343861445	1
2	21461	20432.175887853696	0
2	21467	20432.877896923264	1
2	21468	20433.407346366576	0
2	21500	20466.336213893785	1
2	21501	20467.68804721213	0
2	21525	20479.676646303066	1
2	21526	20480.785050027011	0
2	21560	20502.319002339992	1
2	21561	20502.551844795663	0
2	21615	20568.76988871559	1
2	21616	20569.252776197628	0
2	21620	20570.284517536834	1
2	21621	20570.534494568505	0
2	21625	20571.039050667389	1
2	21626	20571.920768220261	0
2	21645	20599.669849366811	1
2	21646	20600.675898845236	0
2	21670	20631.729555120852	1
2	21671	20632.57364368474	0
2	21677	20633.464063219855	1
2	21678	20634.286414727549	0
2	21685	20637.33107212592	1
2	21686	20637.877157043088	0
2	21697	20641.288145442902	1
2	21698	20642.121969455881	0
2	21715	20665.287621259834	1
2	21716	20666.381008892195	0
2	21745	20745.418987918967	1
2	21746	20745.719977435438	0
2	21755	20751.175556304669	1
2	21756	20752.106278135795	0
2	21770	20771.62467926873	1
2	21771	20772.082858883305	0
2	21830	20839.574477736732	1
2	21831	20839.823944763919	0
2	21845	20844.818959410491	1
2	21846	20845.673779320444	0
2	21855	20849.031060068122	1
2	21857	20849.24263429691	2
2	21858	20849.636756133897	1
2	21862	20850.674861487661	2
2	21863	20850.870593076622	1
2	21866	20852.769707195138	0
2	21875	20856.801148382647	1
2	21876	20858.058130953555	0
2	21910	20894.483602589157	1
2	21914	20894.863095711212	2
2	21915	20896.333336590137	1
2	21920	20898.233356609102	0
2	21924	20898.892798148956	1
2	21926	20899.476887261165	2
2	21927	20900.17450181311	1
2	21930	20902.011457100976	0
2	21937	20904.444119763406	1
2	21939	20904.852558371319	2
2	21940	20905.291780106443	1
2	21944	20905.668523253145	2
2	21946	20906.150778871168	3
2	21948	20906.281425631305	4
2	21949	20906.719660039711	3
2	21953	20907.205585621515	4
2	21954	20907.961718684341	3
2	21958	20908.490379595455	4
2	21959	20909.375774009618	3
2	21962	20911.008062732871	2
2	21966	20911.166920761122	3
2	21967	20912.70747731747	2
2	21971	20913.36957578727	3
2	21972	20914.48530111676	2
2	21976	20915.781196707303	3
2	21977	20916.071352776791	2
2	21980	20917.385206742677	1
2	21984	20918.098464021861	2
2	21985	20919.280248941387	1
2	21989	20920.432692588559	2
2	21990	20920.729432183783	1
2	21993	20922.431246442813	0
2	22000	20924.390018253714	1
2	22001	20926.103559533227	0
2	22025	20959.451289587492	1
2	22026	20959.834276220287	0
2	22040	20966.481667201326	1
2	22041	20968.078693010422	0
2	22050	20970.124344531737	1
2	22051	20971.451033869552	0
2	22055	20972.860865787434	1
2	22056	20973.010621741022	0
2	22075	20989.604301551842	1
2	22076	20990.860913798624	0
2	22080	20992.456707773737	1
2	22081	20992.584883734622	0
2	22090	21018.998501332699	1
2	22091	21020.32735690515	0
2	22125	21051.492197416247	1
2	22126	21052.143729374335	0
2	22135	21054.663345250256	1
2	22136	21055.242054860816	0
2	22160	21073.802323843676	1
2	22161	21074.435890158381	0
2	22185	21090.560971099489	1
2	22186	21092.013201293313	0
2	22200	21098.6704416682	1
2	22201	21100.189650479314	0
2	22205	21101.803227887039	1
2	22206	21102.048680631426	0
2	22210	21102.310628422104	1
2	22211	21103.33205527382	0
2	22220	21106.586528503891	1
2	22221	21106.76845347954	0
2	22235	21118.446858509631	1
2	22237	21118.919533428635	2
2	22238	21119.614994858006	1
2	22241	21121.553632665971	0
2	22245	21123.171829949934	1
2	22247	21123.258775042346	2
2	22248	21123.475664869124	1
2	22252	21124.326631088952	2
2	22254	21124.748887171574	3
2	22255	21125.235997204469	2
2	22259	21125.832107330472	3
2	22260	21126.983844808662	2
2	22264	21127.635893831347	3
2	22265	21128.382150251219	2
2	22268	21129.667996416414	1
2	22272	21129.913514155617	2
2	22273	21130.916400388801	1
2	22277	21130.924389411846	2
2	22278	21132.912326359735	1
2	22281	21134.293322578245	0
2	22295	21138.953169598149	1
2	22296	21140.210392362746	0
2	22310	21147.470547467065	1
2	22311	21148.311525801671	0
2	22340	21177.666414541069	1
2	22341	21178.732823540148	0
2	22345	21179.134019572422	1
2	22346	21180.525256338034	0
2	22355	21183.999408054282	1
2	22356	21185.148105032328	0
2	22440	21265.617698830967	1
2	22441	21266.098600009418	0
2	22445	21266.975305688345	1
2	22446	21268.052186321615	0
2	22485	21310.983556798158	1
2	22486	21312.156599380486	0
2	22505	21323.975572991493	1
2	22506	21324.431451960471	0
2	22510	21325.410635272173	1
2	22511	21326.167773481835	0
2	22515	21326.411883918759	1
2	22517	21326.537434734062	2
2	22519	21326.951187206957	3
2	22520	21327.719583045323	2
2	22523	21329.654522667457	1
2	22526	21330.998524698247	0
2	22565	21371.697661154941	1
2	22566	21372.869997788569	0
2	22605	21409.52185393402	1
2	22606	21410.786144171105	0
2	22610	21411.168208691739	1
2	22613	21412.658197055207	0
2	22620	21414.422960190843	1
2	22621	21415.681231327364	0
2	22630	21417.737939577565	1
2	22631	21418.783517856346	0
2	22655	21443.052973380648	1
2	22656	21443.771064369828	0
2	22660	21444.345233148069	1
2	22661	21445.150722128042	0
2	22675	21450.896574525693	1
2	22676	21451.310166816886	0
2	22692	21459.442376818857	1
2	22693	21460.168422290765	0
2	22705	21466.934342810324	1
2	22706	21468.042872441447	0
2	22720	21483.084720116403	1
2	22721	21483.778285187985	0
2	22725	21484.397947127282	1
2	22727	21485.044627614016	2
2	22728	21485.104240747857	1
2	22731	21486.730426622312	0
2	22745	21494.149084888609	1
2	22746	21495.115316529681	0
2	22750	21495.385389992311	1
2	22751	21496.503024275524	0
2	22780	21525.372034145093	1
2	22781	21526.237541933171	0
2	22800	21539.46750257004	1
2	22801	21540.125668816836	0
2	22825	21568.679778556885	1
2	22826	21569.584999657061	0
2	22835	21577.450775378502	1
2	22836	21577.732544053333	0
2	22840	21578.383633757504	1
2	22841	21579.012079668591	0
2	22860	21603.143084047981	1
2	22861	21603.257516502337	0
2	22865	21603.631950039938	1
2	22866	21604.753078049914	0
2	22880	21618.954888143701	1
2	22881	21620.435792875026	0
2	22900	21637.403527534568	1
2	22901	21638.004036814226	0
2	22905	21638.658031344422	1
2	22906	21639.254948343216	0
2	22925	21646.799535008686	1
2	22926	21647.173994148525	0
2	22935	21651.123293536479	1
2	22936	21651.729970395426	0
2	22950	21658.795915399145	1
2	22953	21659.638017617154	0
2	22960	21661.684576512549	1
2	22963	21662.857894328411	0
2	22985	21677.704329820967	1
2	22986	21679.064859826713	0
2	23015	21724.075783718369	1
2	23016	21725.121029030946	0
2	23025	21726.611304815771	1
2	23026	21728.165334997554	0
2	23060	21747.779669399357	1
2	23061	21749.033959850705	0
2	23100	21804.821001454643	1
2	23101	21805.635483992133	0
2	23120	21835.036413407984	1
2	23121	21835.71652512341	0
2	23220	21924.116626839091	1
2	23221	21924.422542298994	0
2	23240	21969.297126665551	1
2	23241	21970.017280373833	0
2	23245	21970.572637657496	1
2	23246	21971.826351340971	0
2	23250	21972.136203662009	1
2	23251	21973.329409901909	0
2	23255	21974.297719698861	1
2	23256	21974.537411607168	0
2	23345	22074.010056520948	1
2	23346	22074.336966164433	0
2	23380	22125.055175242144	1
[...]
6	16472	15630.744623623509	1.742413541861
6	16475	15632.067121068668	2.202964755284
6	16485	15635.499079609593	2.85415589513
6	16490	15650.940402785147	1.97655714415
6	16517	15676.432616015068	9.926676477962
6	16650	15834.816837669482	1.86750456132
6	16677	15860.761806331452	1.856732407399
6	16685	15866.166354389394	1.47744912263
6	16705	15882.670989474103	1.814523746073
6	16722	15900.468355556799	1.821769732465
6	16770	15934.203512913656	12.216953683546
6	16820	15990.608461877498	1.43436034862
6	16855	16044.543857873486	1.737607472017
6	16865	16053.899847877478	3.579908273078
6	16897	16080.73819747053	1.690959773213
6	16920	16100.431047170697	1.302218971774
6	16972	16132.99030551622	2.341274126272
6	17040	16187.99764570984	1.668271605298
6	17065	16202.51859123181	1.886219171993
6	17070	16208.311572623989	1.39990573395
6	17075	16220.023755746667	1.410977998003
6	17087	16245.113272883473	1.264582785405
6	17130	16288.0463154106	3.043407724395
6	17140	16314.993460589182	1.666075509787
6	17150	16320.170428617769	1.892299408423
6	17194	16361.445736036055	1.237186960503
6	17205	16366.550093429312	5.875428056156
6	17245	16396.784873063061	1.788808766566
6	17265	16404.518731477158	2.160631809862
6	17332	16433.184901805844	4.115872843094
6	17404	16479.042854776463	13.339780778207
6	17445	16547.644177894495	1.762779379741
6	17455	16551.298358627568	2.6933285678
6	17462	16557.990326280566	1.648133920692
6	17480	16571.400652123997	1.704274355806
6	17492	16588.712334091744	2.3803948818
6	17502	16596.746320804712	10.201200489026
6	17515	16611.585033796498	1.851952981949
6	17520	16626.351236683315	1.985499114171
6	17567	16676.123855430102	1.830584988929
6	17577	16679.178485738009	1.238574305363
6	17590	16699.187873270125	1.543739251047
6	17595	16724.369975176319	1.719532056712
6	17660	16772.895259590727	1.472617317736
6	17665	16781.804892632095	1.699766091816
6	17742	16843.687001688145	5.031700653434
6	17757	16852.387895206525	1.308646574244
6	17800	16889.825212615246	5.77435214672
6	17839	16905.568104268096	3.7078859979
6	17877	16932.062481695557	1.991089807995
6	17880	16933.443192706773	2.247956879454
6	17890	16941.372131077046	1.363637991436
6	17950	17038.743185094524	1.735384050384
6	18030	17086.774739894151	3.86256026229
6	18040	17096.589271939105	7.642483200049
6	18074	17156.792986603368	2.448149317291
6	18125	17180.398751619351	7.059255821148
6	18160	17205.815593009834	5.083581458153
6	18175	17211.167901033516	5.01565526463
6	18292	17293.426320809255	1.962907263264
6	18330	17319.041805233843	3.624778314644
6	18360	17341.022367967846	4.57027028551
6	18385	17384.890109015804	6.75561794679
6	18400	17404.402141292265	1.615437548421
6	18455	17438.024352494815	17.7371449338
6	18475	17450.797841801728	11.682118046938
6	18527	17476.606818729837	2.778687253292
6	18570	17513.323225352695	1.994846922159
6	18590	17550.014247707336	1.333295083605
6	18627	17583.207500504192	1.754012004845
6	18660	17595.088335786107	1.886844646744
6	18710	17649.314416581922	3.335880522589
6	18742	17669.47286479046	7.057956338638
6	18752	17673.788138383402	1.721729284339
6	18772	17690.837782515395	1.65021434892
6	18795	17746.587401650511	1.209674941935
6	18810	17756.492288862117	1.380177936889
6	18845	17792.652551764768	1.793549106925
6	18940	17870.236379008358	1.598972706683
6	18959	17885.135461876463	10.322259078041
6	18965	17887.939464228894	3.581802952874
6	18970	17893.013622471662	1.38617956955
6	19057	18001.554574743036	5.178983739585
6	19115	18050.137027853463	1.921162847057
6	19167	18099.783719304901	2.533778673573
6	19190	18118.970629997562	9.526226453525
6	19214	18128.639245639168	2.153243998306
6	19242	18139.819614296103	12.331915690901
6	19249	18141.020430073397	11.253554639541
6	19255	18144.7730199537	4.524988439252
6	19325	18206.478501189758	1.879574371688
6	19550	18407.678096311736	1.408504867861
6	19637	18488.739004120614	6.101455449817
6	19695	18546.846460874582	1.321521056816
6	19710	18565.63414360598	1.259433062188
6	19725	18585.169141462759	1.904319529049
6	19730	18590.918473217803	1.501806119271
6	19760	18608.519362374031	9.0221738096
6	19780	18636.489490795111	1.2694254959
6	19835	18737.707280631957	2.322771186117
6	19860	18781.647984693029	1.412073509581
6	19895	18831.991403137495	1.79874926284
6	19925	18867.944417953806	3.123880461213
6	19947	18913.51826259412	2.351006650082
6	19970	18941.09674267738	5.283205388961
6	19989	18947.870534847941	4.35247662037
6	20030	19000.833322981343	1.690429617199
6	20050	19030.586342733562	2.912768853772
6	20070	19047.538158773384	1.47134445738
6	20095	19063.249480760797	1.603246185929
6	20110	19076.286826552654	1.202247418836
6	20197	19154.208863940139	2.433447894719
6	20230	19191.245162251052	6.518741201338
6	20290	19244.943956167325	4.529192341491
6	20295	19246.830661081223	1.213262725808
6	20335	19281.440599395721	1.755631214008
6	20350	19320.87323406009	1.6767177945
6	20355	19326.729957167406	1.811737802438
6	20375	19339.07493694785	1.318106234087
6	20385	19346.260762628281	1.685446742977
6	20407	19369.40611939305	3.843521081716
6	20440	19413.64682577947	1.705758489855
6	20452	19417.751524906906	1.789485773435
6	20480	19438.318138217165	1.601851599477
6	20485	19440.274322341739	1.621426801197
6	20502	19466.54113482452	3.066984048905
6	20520	19479.821123327706	3.38520159224
6	20530	19486.986708831704	3.378174891555
6	20567	19509.594458523844	10.277278032114
6	20587	19518.409113625524	15.702844741145
6	20590	19519.793202349631	2.025552981943
6	20622	19554.33814739272	7.141740083803
6	20700	19678.709826240798	1.692198312096
6	20755	19738.290060245352	1.85840428099
6	20825	19822.955874542778	1.248968481272
6	20862	19867.354125346687	1.636447809637
6	20869	19869.108172446002	3.387276202406
6	20885	19875.493454168078	1.98339165654
6	20890	19877.18809466712	8.987947546281
6	20895	19880.268615451261	1.23931448888
6	20905	19888.434124047885	2.562499562929
6	21020	19996.163617079672	4.036456723938
6	21042	20010.254724078106	1.938461351767
6	21100	20065.764656273068	9.923349385849
6	21137	20092.425407074443	1.625000166435
6	21159	20105.701572720605	1.506658067368
6	21215	20154.756663210026	1.458134278283
6	21220	20165.509302858048	1.994189161994
6	21237	20183.607250452603	1.232989621907
6	21315	20273.654340148828	9.752316086807
6	21475	20436.782455134063	4.488193109929
6	21490	20447.399155096771	4.141586362664
6	21520	20476.881433832216	6.327498416832
6	21540	20485.892428615132	6.361497697297
6	21562	20502.551844795663	2.42938215646
6	21570	20505.864440947827	2.339534149283
6	21600	20544.048504050754	5.871409200923
6	21617	20569.252776197628	1.268509496562
6	21640	20594.777004643944	6.486484229443
6	21687	20637.877157043088	4.573560036551
6	21705	20645.817806060454	5.153114159539
6	21717	20666.381008892195	1.367589522712
6	21725	20682.781033001183	1.608399094641
6	21840	20844.339522603098	1.307050664909
6	21877	20858.058130953555	1.950595843606
6	21900	20879.723193504096	1.994979483262
6	21941	20905.291780106443	10.587766316499
6	22002	20926.103559533227	28.536458335335
6	22010	20931.949970652787	1.603356931917
6	22077	20990.860913798624	1.737982909568
6	22137	21055.242054860816	1.542443691838
6	22170	21077.879978316207	2.144141626276
6	22222	21106.76845347954	12.354361238402
6	22230	21117.547579736357	1.541208556294
6	22290	21138.054025783935	3.547917555324
6	22320	21151.469514931689	8.47464620269
6	22325	21162.770698107814	1.938418002054
6	22455	21271.173190417475	12.986190934336
6	22465	21283.362045951724	1.931759547395
6	22495	21314.997032753043	5.372537217587
6	22560	21364.832162019062	2.448942468163
6	22575	21375.608715929439	1.819762020962
6	22642	21422.478426376623	1.367483950034
6	22645	21424.415443188404	13.100711067641
6	22707	21468.042872441447	9.39622845295
6	22715	21475.438382630433	1.293605788238
6	22740	21489.969699287518	1.8616154816
6	22765	21505.357109265314	1.236272225529
6	22782	21526.237541933171	1.92171706222
6	22837	21577.732544053333	1.581178163737
6	22897	21636.224407669595	5.458245198701
6	22915	21642.597499572365	7.50785784564
6	22937	21651.729970395426	1.857869274728
6	22964	21662.857894328411	3.306037398802
6	22975	21668.013774278988	5.398356251478
6	22980	21673.853979994918	1.318978750706
6	22987	21679.064859826713	1.996754110977
6	23027	21728.165334997554	1.696531128782
6	23040	21740.455642266427	4.161727205145
6	23070	21769.334372413064	1.693856448866
6	23142	21851.842158595445	1.252960244939
6	23145	21853.236693224842	2.239740016561
6	23215	21917.506523858712	2.535248857402
6	23242	21970.017280373833	1.64189808052
6	23265	21977.51357941769	2.195067790131
6	23285	22001.256133985671	1.787084400281
6	23300	22016.075901992675	1.855690337531
6	23310	22032.760192889691	1.680850464664
6	23340	22072.027714852551	1.263244916126
6	23347	22074.336966164433	1.479707730003
6	23355	22089.342112206691	1.568874478713
6	23427	22165.947631224338	4.822091686501
6	23487	22229.976323570453	5.970876523563
6	23534	22275.818206070386	3.416685154173
6	23544	22278.965745020308	3.825009557635
6	23577	22290.463025194616	15.364256910792
6	23587	22294.007753181886	1.661383344606
6	23602	22298.523569666092	14.754697395026
6	23605	22300.008043193501	3.690253655482
6	23652	22354.415014926052	1.332002138533
6	23707	22396.064237611871	1.79871030841
6	23775	22500.918550012766	1.350500508957
6	23785	22515.938062325032	1.813594951294
6	23790	22524.468203871583	1.269715021364
6	23795	22530.576927940238	1.460112300143
6	23810	22548.347328472611	1.797816936485
6	23817	22554.903925758916	1.286395381577
6	23827	22558.711952625903	3.332494917504
6	23907	22613.94090422458	1.448759549856
6	23927	22634.485772581276	1.887884348445
6	23942	22645.764113035044	1.303496729955
6	23945	22647.212458079858	2.509125617068
6	23960	22659.332143342718	2.977049034189
6	24005	22701.44422498819	1.900175802354
6	24020	22712.498866809466	6.024723819919
6	24070	22761.379453652704	1.248308155872
6	24094	22779.970028097359	1.654969848506
6	24130	22795.814194079775	4.643999444137
6	24160	22827.795528524026	1.710433224216
6	24185	22840.061588038175	4.472538924245
6	24200	22848.686450578578	1.472917072646
6	24222	22870.579085841334	6.371462932682
6	24230	22874.45420243612	1.823985359259
6	24260	22939.749003398341	2.774792503669
6	24270	22958.272327442877	2.304883997465
6	24310	23009.800499685095	1.733094450645
6	24357	23036.910987360761	1.403489969298
6	24360	23038.570861341045	2.358988630748
6	24380	23051.159864593596	1.601018436067
6	24460	23205.878950137653	1.783281747997
6	24517	23252.143112197329	1.302466937713
6	24555	23282.910046266932	11.859775132769
6	24590	23318.572391814444	2.992548941167
6	24631	23357.626966748079	1.951897818595
6	24670	23380.671569526701	2.434454793898
6	24705	23424.597316732854	1.627691944316
6	24732	23462.828736763862	1.379225631058
6	24760	23509.952539986745	1.409388682991
6	24765	23511.652224325203	1.291283279099
6	24790	23542.335661459134	2.110180860452
6	24872	23615.91906897989	1.476505807042
6	24895	23636.840241251822	1.616155039705
6	24915	23651.614756299158	1.862934576161
6	24932	23668.875993175608	1.511058903486
6	25022	23736.549870209033	18.338985261186
6	25027	23737.810302693034	23.105608182679
6	25030	23739.266010772074	11.834447580203
6	25035	23741.76675071567	1.834350710176
6	25065	23762.837978067125	1.347910361923
6	25140	23794.159160188816	1.467591352016
6	25165	23813.358965450203	2.818440941252
6	25289	23942.601095989971	12.075473990847
6	25295	23945.536929406105	4.431301548806
6	25315	23955.938926443231	2.259517836342
6	25339	23965.789122816517	1.262475402094
6	25402	24015.622967456614	10.732127521996
6	25407	24017.392154600059	3.405349725762
6	25410	24018.680003955734	9.246132998708
6	25420	24044.625899951395	1.862921012565
6	25440	24069.577738977465	2.154457829718
6	25450	24076.995579127185	1.54495410677
6	25472	24106.91125393855	1.560246632807
6	25475	24108.19460923663	1.971445773221
6	25510	24129.317275628343	3.867374032057
6	25515	24142.77583050614	1.788871280663
6	25587	24191.91848277777	1.776729212329
6	25597	24195.801128275841	14.215619518692
6	25600	24197.445468569323	3.216959411249
6	25635	24226.856096607011	14.568784342828
6	25690	24283.645529164795	3.697342578036
6	25700	24298.296887619873	1.971395567246
6	25725	24310.829727803386	3.189937766645
6	25735	24325.342480187957	1.32618184872
6	25780	24406.794110406639	1.94109514486
6	25795	24422.769422666084	5.232216329481
6	25837	24483.2298597136	1.863965993933
6	26055	24717.780838978736	1.664826003276
6	26115	24769.257341658988	1.476014390215
6	26130	24798.891522930156	1.350637413748
6	26157	24833.567453918737	4.116115434418
6	26175	24853.295730409029	1.960171719827
6	26185	24862.901739728483	2.413139184601
6	26197	24868.588502928344	2.262020255789
6	26220	24876.20383648715	10.537631839142
6	26247	24907.788737433216	8.598446964001
6	26252	24909.015310149452	2.5844919373
6	26287	24928.186642089422	4.488182037509
6	26305	24972.421658373781	1.968775226362
6	26325	24987.435241140334	1.91806799341
6	26414	25040.660254276694	1.871060473472
6	26420	25043.402716103905	3.482987252996
6	26455	25063.926723199277	2.103652087925
6	26465	25079.730086584178	1.721742929891
6	26480	25097.572498695275	1.286240980774
6	26525	25155.960675612999	1.617561575398
6	26545	25179.970273056529	1.500393360108
6	26590	25233.367609361231	1.444055324234
6	26710	25297.131403769216	16.79672598933
6	26785	25366.038771246694	1.499714975618
6	26832	25412.295235722663	6.424045151504
6	26850	25423.821313754747	1.24443115145
6	26857	25428.470967128079	1.928028742224
6	26870	25454.051778006032	1.599298890494
6	26965	25575.617472576737	8.990858394208
6	26990	25611.103168408022	1.667060886323
6	26995	25614.083616756333	1.954817441292
6	27035	25668.519816738469	2.68803260724
6	27040	25675.206133792707	1.53164739795
6	27047	25680.572766649733	1.989319260418
6	27070	25707.123031853045	1.332670829631
6	27150	25805.929736800976	11.008781404313
6	27177	25842.851079655528	1.768688735164
6	27180	25844.512347811922	10.550222553943
6	27190	25868.300824200703	6.935205914135
6	27195	25871.581301568026	1.230454098061
6	27202	25875.640697803524	1.392946576327
6	27215	25881.579649173339	5.628843045014
6	27355	25993.727565099381	1.351390462369
6	27387	26014.090025932544	3.091757207288
6	27420	26032.902824498874	4.662350645003
6	27440	26054.609583734416	1.915240318514
6	27455	26065.130927566498	4.673366549297
6	27460	26070.16633563615	1.416625807621
6	27472	26100.802220038456	1.351623830572
6	27510	26162.086313948427	1.535644703172
6	27530	26185.295789493232	3.339094253573
6	27547	26203.066001461093	1.879161883891
6	27597	26238.389073047119	6.007733913908
6	27610	26243.273868126926	4.102351098855
6	27615	26248.981218656004	1.219398229942
6	27622	26288.445155646822	1.572609934397
6	27642	26307.673995074961	1.902978742123
6	27670	26336.533589509978	1.988643774018
6	27675	26338.108881922711	1.283777428232
6	27700	26373.840958031752	1.670680152252
6	27730	26436.588836690365	1.71489808131
6	27770	26463.376875061532	13.000377280399
6	27842	26549.605193839206	1.206467396393
6	27905	26579.727865753347	1.206031296588
6	27935	26594.773413122877	5.706431475547
6	27952	26612.457995230724	2.593995662988
6	27965	26622.239545186569	10.581441694495
6	27985	26651.28462566195	1.458417562768
6	28029	26693.119607927858	4.988734326543
6	28037	26696.648354850731	5.281537812857
6	28040	26698.032241633183	4.200392114886
6	28065	26731.829240999801	1.209186764993
6	28130	26801.668639299246	8.267850536785
6	28147	26812.122963410369	1.443204710074
6	28231	26841.62352842842	7.27609943455
6	28234	26843.343301425546	5.570395916446
6	28240	26846.514810870446	18.363717435702
6	28245	26850.998566267835	10.846658024822
6	28267	26899.443911139083	1.324456200004
6	28280	26904.252061585721	1.903386544856
6	28292	26911.496097417326	1.768406503843
6	28330	26929.234233714815	2.053356845258
6	28362	26958.183470735232	9.529467789777
6	28385	26987.526240225588	2.726496890329
6	28412	27004.552471111357	4.758502593967
6	28415	27006.227770132214	3.669286920171
6	28445	27057.991414592263	1.291969285533
6	28495	27088.989786884589	1.523256883584
6	28510	27120.284270961828	1.750090447441
6	28537	27143.60428247224	2.858013585619
6	28540	27144.874845360736	3.434001892416
6	28580	27176.475163612012	1.83191869203
6	28609	27189.06919547848	12.517233831313
6	28670	27238.445727964543	1.206504483894
6	28710	27288.713389647552	6.545524889177
6	28730	27302.645163177596	6.506538606619
6	28749	27309.114557135651	4.560134451035
6	28755	27312.784033393288	6.262248016504
6	28805	27337.391693418017	10.509091958591
6	28865	27388.680116879116	5.386305464396
6	28875	27395.123918942583	4.842473966804
6	28890	27413.181021097416	1.412529701553
6	28925	27454.856640064839	2.300286466308
6	28930	27479.724652736174	1.240455304272
6	28960	27519.942362369514	1.637962811254
6	28995	27539.348163234336	3.239962084343
6	29000	27540.654735979399	1.306341214292
6	29055	27585.647365229229	4.891209991859
6	29062	27589.734859799864	1.956663157046
6	29097	27616.156016092895	2.085067470006
6	29102	27618.143539283945	2.146696628829
6	29145	27640.554099533064	1.583734744042
6	29205	27697.628109367336	3.072519876235
6	29222	27706.866306557667	1.768452586234
6	29255	27738.872884452185	2.763514369888
6	29280	27770.276620787917	1.971069213189
6	29360	27826.47255796746	11.797984954394
6	29380	27841.551471318669	7.407665361801
6	29425	27917.555269218521	1.767798897065
6	29555	28005.271863573269	1.560405271807
6	29620	28073.0561954951	2.036215699933
6	29630	28085.43153484023	4.493546504429
6	29645	28104.299063877548	1.524307630211
6	29755	28194.500833510991	1.760825038143
6	29775	28218.091235651001	1.734466381744
6	29821	28283.998567518016	3.679382112687
6	29837	28290.526340774935	7.495714380105
6	29840	28292.316334881749	1.972436972481
6	29847	28306.911717961038	1.903557469323
6	29885	28371.677334874571	1.409548600204
6	29910	28409.917562414141	1.313641914725
6	30017	28530.043230240827	1.750838813558
6	30080	28587.499306638354	1.9670216823
6	30100	28597.033105531776	2.984470960354
6	30142	28668.598049709973	1.776948948763
6	30160	28675.099967173845	12.57604156644
6	30265	28716.009434860959	1.259599593841
6	30327	28764.997347244215	1.95030250867
6	30365	28795.841361121648	1.46648593843
6	30380	28820.313504949631	1.203798233718
6	30395	28827.073927294424	4.791762407311
6	30412	28842.891172127283	2.808958696855
6	30437	28855.818934732918	1.716864829883
6	30440	28857.794623318557	2.278855639898
6	30470	28891.720540110398	1.271149617806
6	30485	28900.095369967389	4.810471090831
6	30502	28907.704686268958	2.687045802996
6	30545	28934.105729672568	1.63496844843
6	30555	28943.679215504648	1.643247791752
6	30585	28981.017659783087	7.588680530914
6	30625	29050.380656873971	1.972526864707
6	30745	29152.701581877605	1.541738484241
6	30777	29174.35136535287	5.774146653306
6	30780	29175.773707812914	1.808248161425
6	30820	29209.589961286973	1.55669830298
6	30830	29212.700271446728	5.629761653897
6	30867	29283.130724420007	1.450931390002
6	30870	29284.877531335298	2.849131866645
6	30877	29291.50384370642	1.930770555139
6	30930	29347.640085257419	4.511201669627
6	30935	29365.169341620318	1.881876915507
6	30942	29369.214817015878	1.910811411217
6	31060	29478.325351806797	1.216269293055
6	31070	29490.052013019536	1.454225306399
6	31077	29495.087956952263	1.603128914535
6	31080	29496.390724719648	1.728237207265
6	31147	29563.338372966621	1.424715697393
6	31150	29564.809905123126	2.287486100836
6	31175	29591.190014990913	1.307029609054
6	31310	29720.969078697218	1.680603894964
6	31335	29736.290781316484	1.492924255133
6	31345	29761.07743943646	1.495000638627
6	31350	29763.883649019376	1.494019625336
6	31367	29775.317477155481	5.608681342612
6	31382	29784.119114704087	1.683466322534
6	31385	29785.338072768256	2.021201691628
6	31415	29833.327071584625	7.32269227663
6	31420	29840.157621881872	1.337562820688
6	31577	29946.289064982046	4.110808055383
6	31582	29947.81470486175	3.529415012858
6	31595	29956.036762948583	3.061631358354
6	31635	29995.083967092849	2.316786260357

