version 2
run Third_exit_8-1-20191114-11:42:59-9031
attr configname Third_exit_8
attr datetime 20191114-11:42:59
attr experiment Third_exit_8
attr inifile omnetpp.ini
attr iterationvars ""
attr iterationvarsf ""
attr measurement ""
attr network ResponseTimeNetwork
attr processid 9031
attr repetition 1
attr replication #1
attr resultdir results
attr runnumber 1
attr seedset 1
param **.Source.interArrivalTime exponential(6s)
param **.jobPriority bernoulli(0.8)
param **.PS.serviceTimeU1 "uniform(1.2s, 2.0s)"
param **.PS.serviceTimeU2 "uniform(2.4s, 2.8s)"
param **.SS1.serviceTime exponential(1.4s)
param **.SS2.serviceTime exponential(2s)
param **.PS.exitProbability bernoulli(0.8)

vector 0 ResponseTimeNetwork.QueueU1 queueLength:vector ETV
attr interpolationmode sample-hold
attr title "queue length, vector"
vector 1 ResponseTimeNetwork.SS1 queueLength:vector ETV
attr interpolationmode sample-hold
attr title "queue length, vector"
vector 2 ResponseTimeNetwork.sink lifeTimeU1:vector ETV
attr interpolationmode none
attr title "lifetime of arrived jobs U1, vector"
attr unit s
vector 3 ResponseTimeNetwork.sink totalServiceTimeU1:vector ETV
attr interpolationmode none
attr title "the total time spent  by arrived jobs U1, vector"
attr unit s
vector 4 ResponseTimeNetwork.sink lifeTime:vector ETV
attr interpolationmode none
attr title "lifetime of arrived jobs, vector"
attr unit s
vector 5 ResponseTimeNetwork.sink totalServiceTime:vector ETV
attr interpolationmode none
attr title "the total time spent  by arrived jobs, vector"
attr unit s
vector 6 ResponseTimeNetwork.QueueU2 queueLength:vector ETV
attr interpolationmode sample-hold
attr title "queue length, vector"
0	31977	10000.006825282668	71
0	31978	10001.632910614564	70
0	31982	10003.277307887634	71
0	31983	10003.291500657341	70
0	31986	10004.689727461627	69
0	31990	10004.959940300129	70
0	31992	10005.163236497948	71
0	31994	10005.710083924097	72
0	31995	10006.458314119755	71
0	31998	10008.380809430695	70
0	32002	10008.743671142664	71
0	32004	10008.91003007306	72
0	32005	10010.23927736926	71
0	32008	10011.801483713566	70
0	32012	10011.99300183732	71
0	32014	10012.556923952838	72
0	32015	10013.096718646689	71
0	32019	10014.397073168123	72
0	32020	10014.695950105331	71
0	32024	10015.244675073674	72
0	32026	10015.348678401186	73
0	32029	10016.411584562353	72
0	32032	10017.776015875592	71
0	32036	10018.771847705384	72
0	32037	10019.29915176957	71
0	32041	10019.320075633537	72
0	32042	10020.768643027275	71
0	32046	10021.540089587961	72
0	32047	10022.510465202584	71
0	32051	10023.060886376097	72
0	32052	10024.487696126393	71
0	32056	10024.48961587875	72
0	32057	10026.42216211605	71
0	32061	10027.600692926033	72
0	32062	10027.954531629301	71
0	32066	10028.178270354385	72
0	32067	10029.357956509023	71
0	32071	10029.987609430293	72
0	32074	10030.899340802162	71
0	32078	10031.085872412744	72
0	32079	10032.408136663876	71
0	32082	10033.787284871853	70
0	32086	10033.875880887505	71
0	32088	10033.991581644033	72
0	32090	10035.097724468535	73
0	32091	10035.195308194227	72
0	32095	10035.724790040986	73
0	32096	10036.41306263554	72
0	32100	10036.870888970161	73
0	32101	10038.060160601615	72
0	32105	10038.730475231025	73
0	32107	10038.734925689109	74
0	32109	10039.787628690539	75
0	32110	10039.797023162535	74
0	32114	10040.021725097794	75
0	32116	10040.18474603581	76
0	32119	10041.052741857349	75
0	32122	10042.512893506802	74
0	32126	10043.167119971998	75
0	32128	10043.314275360303	76
0	32129	10044.429481148823	75
0	32132	10045.998088156349	74
0	32136	10046.591536693942	75
0	32138	10046.75897386326	76
0	32139	10047.933125316455	75
0	32143	10049.286088319047	76
0	32144	10049.407857096112	75
0	32148	10051.199623639329	76
0	32149	10051.289864712125	75
0	32152	10052.969107076628	74
0	32155	10054.75246562819	73
0	32159	10054.944704043022	74
0	32160	10056.69177953965	73
0	32163	10058.566451242296	72
0	32166	10059.873061185619	71
0	32170	10059.87313045603	72
0	32172	10060.153237602902	73
0	32174	10060.684157286997	74
0	32175	10061.653229684113	73
0	32178	10062.936488229512	72
0	32182	10063.338962060341	73
0	32183	10064.639198525539	72
0	32186	10065.852821312575	71
0	32189	10067.637328242427	70
0	32193	10067.830543851525	71
0	32195	10068.99190212104	72
0	32196	10069.278592116302	71
0	32200	10069.686571310169	72
0	32202	10070.365460964443	73
0	32205	10071.163795410572	72
0	32208	10073.153965124777	71
0	32212	10073.750848968517	72
0	32213	10074.482373594596	71
0	32216	10075.901944019749	70
0	32220	10076.43248840068	71
0	32222	10077.592052810535	72
0	32223	10077.839951099373	71
0	32227	10078.172784572671	72
0	32229	10078.375850186774	73
0	32230	10079.244422002986	72
0	32234	10080.136430911315	73
0	32235	10080.582889000431	72
0	32239	10081.637540763915	73
0	32240	10081.804934389621	72
0	32244	10082.485271965255	73
0	32246	10082.959001623447	74
0	32247	10083.354292911954	73
0	32251	10084.72406786891	74
0	32252	10085.069091420538	73
0	32256	10085.403511333496	74
0	32257	10086.937224586225	73
0	32261	10088.301555083591	74
0	32262	10088.431827062099	73
0	32265	10090.362672278388	72
0	32269	10090.52688049851	73
0	32270	10091.947283624774	72
0	32274	10092.359911542036	73
0	32275	10093.75314263097	72
0	32279	10094.32261856737	73
0	32281	10094.934999877495	74
0	32283	10095.254996984929	75
0	32285	10095.338575197559	76
0	32286	10095.596989703653	75
0	32290	10096.143103601596	76
0	32292	10096.195675038779	77
0	32294	10096.318007853105	78
0	32295	10096.962431585518	77
0	32299	10097.131661222188	78
0	32301	10098.005620672439	79
0	32302	10098.447866152701	78
0	32306	10098.862591377251	79
0	32308	10099.327154122135	80
0	32309	10100.027349514429	79
0	32313	10101.141739077431	80
0	32314	10101.408621339601	79
0	32318	10102.027165292179	80
0	32319	10102.868398385223	79
0	32323	10103.678865881202	80
0	32324	10104.70900625075	79
0	32327	10106.274129028346	78
0	32331	10106.649776093761	79
0	32332	10107.851440092276	78
0	32336	10108.689175370399	79
0	32337	10109.657410988311	78
0	32341	10109.739281568119	79
0	32343	10110.627171577846	80
0	32344	10111.263592077891	79
0	32348	10111.509348701195	80
0	32350	10112.530161958572	81
0	32351	10113.029287971469	80
0	32355	10114.575688131078	81
0	32356	10114.786761693569	80
0	32359	10116.107921829173	79
0	32363	10117.313404635335	80
0	32364	10117.700378682563	79
0	32367	10119.325070862943	78
0	32371	10119.373002217383	79
0	32372	10120.624801710905	78
0	32376	10121.731022879482	79
0	32377	10122.381222218001	78
0	32382	10124.100041090982	77
0	32386	10124.508843400406	78
0	32388	10125.262819194143	79
0	32389	10125.815900043683	78
0	32393	10126.672867531548	79
0	32394	10127.704217045108	78
0	32398	10128.339641576715	79
0	32399	10129.052751314366	78
0	32402	10130.627626298653	77
0	32405	10132.579692310752	76
0	32408	10134.159214428538	75
0	32412	10134.17683728533	76
0	32414	10134.455929841223	77
0	32416	10134.462978067331	78
0	32417	10136.044061798142	77
0	32422	10137.967916969495	76
0	32426	10138.55688603026	77
0	32428	10139.050176278089	78
0	32429	10139.784695354575	77
0	32432	10141.240256468678	76
0	32436	10141.807079101943	77
0	32438	10142.433351174693	78
0	32439	10142.788492839882	77
0	32443	10143.648052350685	78
0	32444	10144.479432480136	77
0	32448	10144.492318199969	78
0	32449	10146.429055526579	77
0	32452	10147.8531711991	76
0	32456	10147.871816944474	77
0	32457	10149.293139038147	76
0	32461	10149.457768486943	77
0	32462	10150.625722070882	76
0	32466	10151.760104051803	77
0	32467	10152.319644836435	76
0	32471	10152.375554100425	77
0	32473	10152.379048466232	78
0	32475	10152.72427267952	79
0	32477	10152.753792683573	80
0	32479	10152.94600131332	81
0	32480	10153.573598414758	80
0	32483	10154.818316885741	79
0	32487	10155.617623052301	80
0	32488	10156.728907583566	79
0	32492	10157.88055989122	80
0	32493	10158.086933030845	79
0	32496	10159.452620020048	78
0	32499	10161.110897117951	77
0	32503	10161.776660272632	78
0	32505	10162.209441219614	79
0	32507	10162.232922569033	80
0	32508	10162.423250072734	79
0	32513	10164.095141521567	78
0	32517	10164.704022996048	79
0	32518	10165.478507830301	78
0	32522	10166.241887799419	79
0	32524	10167.012404988434	80
0	32525	10167.247083485225	79
0	32529	10167.838692871999	80
0	32530	10169.191154483804	79
0	32534	10169.561006143604	80
0	32535	10170.803368046233	79
0	32538	10172.356502665864	78
0	32542	10173.655441022633	79
0	32544	10173.965609721431	80
0	32545	10174.012780328938	79
0	32549	10175.288010142432	80
0	32550	10175.489479702809	79
0	32554	10176.540529251424	80
0	32555	10177.106141277128	79
0	32558	10179.101014916138	78
0	32561	10180.362283182428	77
0	32565	10180.978207244986	78
0	32566	10181.592033255384	77
0	32570	10181.888593840889	78
0	32572	10182.398641480797	79
0	32573	10183.396111389161	78
0	32577	10183.534738831111	79
0	32578	10185.211818097257	78
0	32582	10186.778325108092	79
0	32583	10186.977376877055	78
0	32587	10187.631315693654	79
0	32588	10188.787121663526	78
0	32592	10189.284624966269	79
0	32594	10189.415006585695	80
0	32595	10190.642809792333	79
0	32599	10191.107893365127	80
0	32601	10191.242550604883	81
0	32602	10192.325555704818	80
0	32606	10192.832644686401	81
0	32607	10194.272734042541	80
0	32613	10194.675367444184	81
0	32614	10195.856025236756	80
0	32618	10196.423079366057	81
0	32620	10197.381268419856	82
0	32621	10197.701905938149	81
0	32624	10199.529187214844	80
0	32628	10199.560484593145	81
0	32629	10201.514120433763	80
0	32633	10202.205343106849	81
0	32635	10202.940433012145	82
0	32636	10203.104969929628	81
0	32640	10204.117397575983	82
0	32641	10204.776018225685	81
0	32645	10205.903514303104	82
0	32647	10206.305491586257	83
0	32648	10206.723884182893	82
0	32652	10206.865764765864	83
0	32654	10207.553587989196	84
0	32655	10208.056774529912	83
0	32659	10209.757128096719	84
0	32660	10209.901396258645	83
0	32664	10210.962446754	84
0	32665	10211.514204940111	83
0	32670	10213.093643852421	82
0	32674	10213.209820572601	83
0	32675	10214.809684363292	82
0	32679	10215.494125722882	83
0	32680	10216.697625185834	82
0	32684	10218.238729637057	83
0	32685	10218.248963375674	82
0	32689	10219.66186768016	83
0	32690	10219.961420942941	82
0	32694	10220.009416395977	83
0	32695	10221.317156867595	82
0	32699	10222.948034473114	83
0	32700	10223.151481610449	82
0	32703	10224.917378197895	81
0	32707	10225.387161389176	82
0	32708	10226.665056199679	81
0	32712	10227.119130597415	82
0	32713	10228.211363530444	81
0	32717	10228.87607014737	82
0	32718	10229.584489492798	81
0	32722	10231.139094285632	82
0	32723	10231.207542259717	81
0	32726	10233.023472185904	80
0	32730	10233.528766301815	81
0	32731	10234.272342159698	80
0	32735	10234.305705749247	81
0	32737	10234.951288941394	82
0	32738	10235.51107879086	81
0	32742	10235.94751567629	82
0	32743	10236.870117415027	81
0	32746	10238.575482289591	80
0	32750	10239.343141748642	81
0	32752	10239.449482508104	82
0	32753	10239.821902654604	81
0	32756	10241.765740675577	80
0	32760	10242.317345839828	81
0	32761	10243.091367830248	80
0	32764	10244.832092251913	79
0	32767	10246.213212617399	78
0	32770	10248.035130240867	77
0	32774	10249.02473683981	78
0	32775	10249.739051780203	77
0	32779	10250.067852746726	78
0	32780	10251.232018457824	77
0	32784	10251.251610713489	78
0	32786	10252.096642892672	79
0	32787	10253.040028190339	78
0	32790	10254.573423794011	77
0	32794	10254.697399439725	78
0	32796	10254.820292695779	79
0	32798	10255.211726074113	80
0	32800	10255.538592895595	81
0	32802	10255.55384639105	82
0	32804	10256.20861091454	83
0	32805	10256.272061526874	82
0	32809	10257.079073721793	83
0	32810	10257.906966602342	82
0	32813	10259.849294021265	81
0	32816	10261.754848782444	80
0	32819	10263.291917894693	79
0	32823	10263.629129989106	80
0	32824	10264.894274727726	79
0	32828	10264.924513713409	80
0	32829	10266.492356441268	79
0	32833	10266.540586713917	80
0	32834	10268.120741748349	79
0	32840	10269.67214701534	80
0	32841	10269.914378954754	79
0	32845	10270.248639070746	80
0	32847	10270.938190641855	81
0	32849	10271.272841562187	82
0	32850	10271.858715222687	81
0	32853	10273.825065158964	80
0	32857	10274.584044113216	81
0	32859	10274.774007746085	82
0	32861	10274.932342537833	83
0	32862	10275.108660806441	82
0	32866	10275.569181942227	83
0	32867	10276.97321546963	82
0	32870	10278.19576646416	81
0	32874	10278.567024101797	82
0	32876	10279.947282124628	83
0	32877	10280.145361021259	82
0	32881	10280.398790946516	83
0	32883	10281.988070609201	84
0	32884	10282.05196754551	83
0	32888	10282.346576128492	84
0	32889	10283.953110428997	83
0	32892	10285.702259648875	82
0	32896	10287.327061278337	83
0	32898	10287.35008835377	84
0	32899	10287.700011325911	83
0	32903	10287.921862496371	84
0	32905	10288.502349106539	85
0	32906	10289.555951437079	84
0	32910	10290.391660488068	85
0	32911	10291.246205807016	84
0	32914	10292.570691216276	83
0	32918	10292.603864180375	84
0	32919	10293.999209146672	83
0	32922	10295.382514886656	82
0	32926	10295.938464392958	83
0	32928	10297.129391367988	84
0	32929	10297.230852340819	83
0	32933	10297.765541400585	84
0	32935	10298.260031517278	85
0	32936	10298.448891833337	84
0	32939	10299.852142279321	83
0	32943	10300.208640098721	84
0	32944	10301.837147733481	83
0	32948	10301.976601806314	84
0	32950	10302.456019549655	85
0	32951	10303.263252115161	84
0	32955	10303.575213705303	85
0	32956	10304.503353297994	84
0	32960	10304.912417497177	85
0	32962	10305.256408939197	86
0	32963	10306.123918741107	85
0	32966	10307.601896984786	84
0	32970	10308.749840205121	85
0	32971	10309.58794367975	84
0	32975	10310.574867929298	85
0	32976	10310.969834181763	84
0	32980	10311.126792210381	85
0	32982	10312.274921225667	86
0	32983	10312.528016040012	85
0	32987	10313.407066271971	86
0	32988	10313.750495027661	85
0	32992	10315.242089396616	86
0	32993	10315.538012654058	85
0	32997	10316.254704259826	86
0	32999	10316.735880852258	87
0	33001	10317.382136309218	88
0	33002	10317.407022306978	87
0	33005	10318.803377212121	86
0	33009	10319.583565814643	87
0	33011	10320.119048403363	88
0	33012	10320.232044699139	87
0	33016	10320.315248191988	88
0	33018	10321.249121947773	89
0	33019	10321.70693889363	88
0	33023	10321.779360554381	89
0	33025	10322.100221955191	90
0	33027	10322.632852516129	91
0	33028	10323.661996922924	90
0	33031	10325.314250445089	89
0	33035	10327.067468286796	90
0	33036	10327.146681094824	89
0	33039	10328.705923003613	88
0	33043	10329.865731969382	89
0	33044	10330.139942868895	88
0	33048	10330.316359929484	89
0	33049	10331.751270367115	88
0	33053	10332.958864567962	89
0	33054	10333.540766362756	88
0	33057	10335.23199082306	87
0	33060	10336.503162323594	86
0	33064	10337.179041807075	87
0	33065	10338.455799446911	86
0	33069	10338.978116540745	87
0	33071	10339.012693127904	88
0	33073	10339.089962048452	89
0	33074	10339.974018468619	88
0	33078	10340.070619412553	89
0	33079	10341.229805328049	88
0	33082	10342.450567376711	87
0	33086	10343.210687288193	88
0	33087	10344.297198657603	87
0	33091	10344.515305822896	88
0	33092	10345.727211404876	87
0	33095	10347.472166464948	86
0	33098	10349.440719896466	85
0	33102	10351.022702650213	86
0	33103	10351.202088712626	85
0	33107	10351.978151575965	86
0	33108	10352.494576468975	85
0	33112	10352.559415963698	86
0	33113	10354.129563874476	85
0	33117	10354.471808139334	86
0	33119	10355.639127978462	87
0	33120	10355.672360304468	86
0	33124	10355.860432135419	87
0	33126	10356.559182714898	88
0	33127	10357.509058428467	87
0	33130	10359.347739846543	86
0	33134	10359.437534247672	87
0	33135	10361.235410825261	86
0	33139	10361.290165274393	87
0	33141	10362.13162305562	88
0	33142	10362.78777353345	87
0	33146	10362.8944917886	88
0	33148	10363.172398978513	89
0	33150	10363.787365557252	90
0	33151	10364.717364015156	89
0	33155	10365.54580200479	90
0	33156	10366.33479109081	89
0	33160	10367.286694378197	90
0	33161	10367.867392414534	89
0	33165	10368.066218329974	90
0	33167	10368.708585345769	91
0	33168	10369.453264093497	90
0	33172	10369.772333245748	91
0	33173	10371.181603707657	90
0	33177	10371.606872357628	91
0	33179	10372.091661149579	92
0	33181	10372.202158287021	93
0	33183	10372.925335561943	94
0	33184	10373.138945161835	93
0	33187	10374.59473613678	92
0	33190	10376.106176651553	91
0	33194	10376.154233518053	92
0	33196	10376.778239370653	93
0	33197	10377.4937748096	92
0	33201	10377.521592244932	93
0	33202	10379.165119953365	92
0	33206	10379.175854860779	93
0	33208	10379.324823460353	94
0	33209	10380.765081307576	93
0	33212	10381.981715283641	92
0	33215	10383.288000542955	91
0	33218	10384.515942692482	90
0	33221	10386.130300036916	89
0	33225	10386.893564647847	90
0	33227	10387.477653287832	91
0	33228	10387.516923876391	90
0	33232	10388.109441147805	91
0	33234	10388.149097973226	92
0	33235	10389.472221655497	91
0	33239	10390.182961176768	92
0	33240	10391.00474536466	91
0	33244	10391.579633110983	92
0	33245	10392.971586113521	91
0	33248	10394.679882850037	90
0	33252	10396.042336684292	91
0	33253	10396.211444312618	90
0	33256	10397.487489345022	89
0	33259	10399.14486740353	88
0	33263	10399.69738668894	89
0	33265	10400.049252137614	90
0	33267	10400.48215301406	91
0	33268	10400.522373257116	90
0	33272	10401.783148128316	91
0	33273	10401.867733634919	90
0	33277	10402.421220607844	91
0	33279	10402.470527787837	92
0	33281	10402.578041908957	93
0	33282	10403.580414945357	92
0	33286	10404.402267574383	93
0	33287	10405.418406181321	92
0	33290	10407.202332972646	91
0	33293	10408.69825773938	90
0	33297	10409.405665138829	91
0	33298	10410.441464545861	90
0	33302	10410.542702093229	91
0	33303	10411.66809184207	90
0	33307	10412.308573550162	91
0	33309	10413.163143142942	92
0	33311	10413.454699681971	93
0	33312	10413.455208855405	92
0	33316	10413.548902814515	93
0	33317	10415.09004496625	92
0	33320	10416.601760002322	91
0	33324	10417.206705755763	92
0	33325	10418.128988892681	91
0	33329	10418.514198162167	92
0	33330	10419.68172171647	91
0	33334	10419.939313712212	92
0	33336	10420.238606835084	93
0	33337	10421.440585458374	92
0	33341	10422.30052312935	93
0	33342	10423.43269396825	92
0	33346	10424.305491292993	93
0	33347	10424.812305532305	92
0	33351	10425.238550894487	93
0	33353	10425.476733634381	94
0	33354	10426.461584914385	93
0	33358	10427.255792403407	94
0	33359	10428.030361815079	93
0	33363	10428.342598421544	94
0	33365	10428.495754120579	95
0	33367	10429.157140040712	96
0	33368	10429.558801065667	95
0	33372	10430.105348501952	96
0	33373	10430.847968025973	95
0	33376	10432.356423157176	94
0	33380	10432.610362373497	95
0	33382	10433.20191477867	96
0	33383	10434.255714679046	95
0	33387	10434.903859670757	96
0	33388	10435.626725744924	95
0	33391	10436.89804403363	94
0	33395	10436.975861723915	95
0	33396	10438.559482349178	94
0	33400	10439.557281364985	95
0	33401	10440.299297496213	94
0	33404	10441.697585431582	93
0	33408	10441.913058528364	94
0	33410	10441.952754369769	95
0	33412	10442.950643985867	96
0	33413	10443.34161127033	95
0	33417	10443.458929743076	96
0	33418	10444.690448645412	95
0	33422	10444.81830841142	96
0	33423	10446.174989485837	95
0	33427	10446.616296000638	96
0	33428	10447.762385748051	95
0	33432	10447.822857610392	96
0	33433	10449.08910362041	95
0	33437	10449.19607322464	96
0	33438	10450.651902138352	95
0	33442	10450.832081125984	96
0	33444	10451.766419692126	97
0	33445	10452.273225317806	96
0	33449	10452.288704762256	97
0	33451	10453.432017252962	98
0	33452	10453.593594448924	97
0	33455	10455.200937079549	96
0	33458	10457.048125948854	95
0	33462	10457.496817161215	96
0	33463	10458.667129237861	95
0	33467	10459.259953372519	96
0	33469	10459.722642007444	97
0	33470	10460.022167847217	96
0	33474	10460.931283552002	97
0	33475	10461.753739312948	96
0	33478	10463.014032270299	95
0	33481	10464.248723069863	94
0	33485	10464.917788768979	95
0	33486	10465.450595335947	94
0	33490	10466.850306852848	95
0	33491	10467.443704236583	94
0	33495	10468.43746634676	95
0	33496	10469.051396259018	94
0	33500	10469.212738567815	95
0	33501	10470.996498893671	94
0	33505	10471.97583158113	95
0	33506	10472.826218280293	94
0	33510	10474.427815249989	95
0	33511	10474.622197408512	94
0	33515	10475.027568364128	95
0	33517	10475.981499325543	96
0	33519	10476.068771450549	97
0	33520	10476.385783643	96
0	33523	10478.153102744654	95
0	33527	10478.173947042871	96
0	33529	10479.429587112585	97
0	33530	10479.755263876267	96
0	33534	10480.156280117706	97
0	33536	10480.292729492644	98
0	33537	10481.672062490605	97
0	33540	10483.517058619954	96
0	33543	10485.103422531769	95
0	33547	10485.431427963589	96
0	33548	10486.921721985475	95
0	33552	10487.11525940857	96
0	33554	10487.518120875242	97
0	33555	10488.431564822332	96
0	33559	10489.080024779268	97
0	33560	10489.806510105454	96
0	33564	10490.503199739668	97
0	33565	10491.531045208783	96
0	33568	10492.980494532646	95
0	33572	10493.367352696552	96
0	33573	10494.550767077976	95
0	33577	10494.67363618581	96
0	33579	10494.852342414738	97
0	33580	10495.923566796356	96
0	33583	10497.248137198859	95
0	33586	10499.086007583053	94
0	33590	10499.560982543417	95
0	33591	10500.379203130962	94
0	33595	10500.829975116609	95
0	33597	10501.465813164264	96
0	33598	10501.63356398447	95
0	33601	10502.997424100996	94
0	33605	10503.344253523854	95
0	33606	10504.965869750739	94
0	33610	10505.916337153719	95
0	33611	10506.619866838031	94
0	33615	10507.652909831155	95
0	33616	10507.880633612074	94
0	33620	10509.610256130587	95
0	33621	10509.837799387708	94
0	33625	10510.881825354358	95
0	33626	10511.088902124487	94
0	33630	10511.44818342214	95
0	33631	10512.308117495015	94
0	33635	10512.491295035434	95
0	33637	10513.439509841466	96
0	33638	10514.238031060531	95
0	33644	10515.426871910856	96
0	33645	10515.845088151938	95
0	33649	10516.38971340019	96
0	33650	10517.061383115037	95
0	33653	10518.488639590799	94
0	33657	10519.189098770834	95
0	33658	10520.213243104055	94
0	33662	10520.447750525936	95
0	33663	10522.051221601761	94
0	33667	10523.548275690055	95
0	33668	10523.587134214773	94
0	33671	10525.430366641379	93
0	33674	10527.197467592641	92
0	33678	10527.987235669228	93
0	33680	10528.149994877103	94
0	33681	10528.477701838969	93
0	33684	10529.993844130731	92
0	33688	10530.56232837593	93
0	33690	10531.234425785271	94
0	33691	10531.939681092373	93
0	33696	10533.424667950443	92
0	33700	10533.922467080676	93
0	33701	10534.634095180689	92
0	33705	10535.047481665593	93
0	33706	10536.04399886085	92
0	33709	10537.621213221273	91
0	33712	10539.185464802107	90
0	33715	10540.85375249563	89
0	33719	10541.615977262207	90
0	33720	10542.398809794059	89
0	33724	10543.065788939587	90
0	33726	10543.738358386422	91
0	33727	10543.751468398144	90
0	33730	10545.229361261522	89
0	33734	10546.089545611061	90
0	33735	10546.979141062593	89
0	33739	10548.212994814989	90
0	33740	10548.800336948505	89
0	33744	10549.130051671153	90
0	33745	10550.745491819738	89
0	33749	10552.324289698657	90
0	33750	10552.550386269859	89
0	33753	10554.188616126872	88
0	33756	10555.650522171057	87
0	33759	10557.017500564738	86
0	33763	10557.675619907148	87
0	33765	10557.818931780279	88
0	33766	10558.415252718611	87
0	33770	10559.2352242665	88
0	33771	10560.192429500541	87
0	33774	10562.055475779718	86
0	33778	10562.71542338258	87
0	33779	10563.893169423847	86
0	33783	10564.00734750433	87
0	33784	10565.107989880538	86
0	33788	10565.218548972874	87
0	33789	10567.09025441101	86
0	33792	10568.463163845709	85
0	33795	10570.118303460909	84
0	33799	10570.664507869078	85
0	33801	10570.971929150106	86
0	33802	10572.058049333563	85
0	33806	10572.285705544818	86
0	33808	10573.933067864637	87
0	33809	10573.934459616339	86
0	33813	10573.950271136227	87
0	33814	10575.403011611385	86
0	33818	10576.679863327595	87
0	33820	10576.79230940417	88
0	33821	10577.294138134738	87
0	33824	10579.199100735878	86
0	33828	10579.273659534647	87
0	33829	10580.678601235432	86
0	33833	10581.336394088945	87
0	33834	10581.879866172654	86
0	33837	10583.362591991668	85
0	33840	10584.568754057681	84
0	33844	10585.768684359843	85
0	33846	10585.801796504991	86
0	33847	10585.877749690695	85
0	33851	10586.447962852478	86
0	33853	10586.979742007471	87
0	33855	10587.168243266394	88
0	33856	10587.359612394592	87
0	33860	10587.360874990664	88
0	33861	10588.652986730172	87
0	33865	10588.792887368843	88
0	33866	10590.219285956866	87
0	33870	10590.584067007511	88
0	33873	10592.212826550661	87
0	33877	10592.696950844256	88
0	33879	10593.760798672227	89
0	33880	10593.89544703467	88
0	33886	10594.085708533537	89
0	33887	10595.597968476919	88
0	33891	10596.249538994381	89
0	33893	10596.495985782958	90
0	33894	10597.487589847018	89
0	33898	10597.509494458153	90
0	33900	10597.563228015313	91
0	33901	10598.898073956278	90
0	33907	10600.774827253532	91
0	33908	10600.785492630769	90
0	33912	10601.057734603444	91
0	33913	10602.192483283673	90
0	33916	10603.82394209737	89
0	33919	10605.174745376688	88
0	33923	10605.196625375782	89
0	33925	10605.753077196636	90
0	33926	10606.552751629893	89
0	33930	10607.14588625614	90
0	33932	10607.29896887872	91
0	33933	10607.870786689502	90
0	33936	10609.532932818775	89
0	33940	10609.890006737067	90
0	33942	10610.071115938831	91
0	33943	10610.854848095496	90
0	33947	10610.873724476911	91
0	33949	10611.170902657287	92
0	33952	10612.833355332819	91
0	33956	10613.984073305083	92
0	33957	10614.035042282661	91
0	33960	10615.980568763895	90
0	33964	10617.040684716372	91
0	33965	10617.562827380842	90
0	33969	10618.105722629921	91
0	33970	10619.278781642488	90
0	33974	10619.445930829706	91
0	33976	10619.732089494641	92
0	33978	10620.688973706376	93
0	33979	10620.982556605994	92
0	33982	10622.802787580437	91
0	33985	10624.011021880901	90
0	33989	10625.10071703367	91
0	33990	10625.923594033069	90
0	33993	10627.458318200803	89
0	33997	10627.870616931325	90
0	33999	10627.948562396786	91
0	34001	10627.969603639256	92
0	34004	10628.784137887603	91
0	34008	10629.133876724128	92
0	34010	10629.347923706506	93
0	34011	10630.025609238727	92
0	34015	10630.660493945826	93
0	34016	10631.437994552871	92
0	34019	10633.145619183315	91
0	34023	10633.44869603254	92
0	34024	10634.345656886233	91
0	34028	10634.378690969873	92
0	34030	10634.636958310771	93
0	34032	10634.674420495494	94
0	34034	10634.918787060309	95
0	34035	10636.255073512627	94
0	34039	10636.751592655003	95
0	34040	10637.703554992287	94
0	34043	10639.15630047126	93
0	34047	10640.120869740753	94
0	34048	10640.853345979287	93
0	34052	10640.956574562788	94
0	34054	10641.368371236983	95
0	34055	10642.146642242654	94
0	34058	10643.91780211339	93
0	34062	10644.407551846891	94
0	34063	10645.171422287358	93
0	34067	10645.706467705179	94
0	34069	10645.808082040685	95
0	34071	10646.268824882894	96
0	34073	10646.608693931461	97
0	34074	10646.837013155503	96
0	34078	10646.85030235296	97
0	34079	10648.813010976186	96
0	34083	10649.156389729051	97
0	34084	10650.616386079324	96
0	34088	10652.155804341984	97
0	34089	10652.416099188013	96
0	34092	10654.184990726879	95
0	34095	10655.922327279022	94
0	34099	10656.198914531537	95
0	34100	10657.133106493114	94
0	34103	10658.686318974851	93
0	34107	10658.81756273642	94
0	34109	10659.729218073089	95
0	34110	10660.322773491314	94
0	34114	10660.428122040221	95
0	34116	10660.583228087995	96
0	34117	10661.771067473015	95
0	34120	10663.048654738723	94
0	34124	10663.854671690684	95
0	34125	10664.749442112914	94
0	34129	10664.856261946479	95
0	34131	10664.94808212519	96
0	34132	10666.637988597809	95
0	34135	10667.955615848026	94
0	34138	10669.187734619437	93
0	34142	10669.882472206809	94
0	34144	10670.050347723719	95
0	34145	10670.998193814701	94
0	34149	10672.315395509212	95
0	34151	10672.399607404708	96
0	34152	10672.439537450394	95
0	34156	10672.701197908784	96
0	34158	10672.916375834898	97
0	34159	10673.994661461285	96
0	34163	10674.000916509234	97
0	34165	10675.080785850225	98
0	34166	10675.77978946483	97
0	34169	10677.347390693894	96
0	34173	10677.472402133463	97
0	34175	10678.266721345186	98
0	34176	10678.985777678436	97
0	34179	10680.271863419844	96
0	34183	10681.312029651469	97
0	34184	10681.58387074629	96
0	34187	10683.577601101344	95
0	34191	10683.887138750386	96
0	34193	10684.000489515153	97
0	34195	10684.125426249348	98
0	34197	10684.578744757095	99
0	34198	10684.936840060448	98
0	34202	10685.487926405841	99
0	34204	10686.040116776621	100
0	34205	10686.843901557198	99
0	34209	10687.905384419835	100
0	34210	10688.106302042401	99
0	34213	10689.827066005676	98
0	34216	10691.327454101763	97
0	34220	10691.501679610321	98
0	34222	10691.954319326303	99
0	34223	10692.848090163715	98
0	34227	10694.063196591335	99
0	34228	10694.570654587358	98
0	34232	10694.798419446345	99
0	34233	10696.152546614319	98
0	34237	10696.377709180062	99
0	34238	10697.46249993211	98
0	34241	10698.727905071251	97
0	34245	10699.023398918536	98
0	34247	10699.256871459339	99
0	34248	10700.251062797107	98
0	34251	10701.947845327765	97
0	34255	10703.11437584868	98
0	34257	10703.281917992003	99
0	34258	10703.33422261896	98
0	34261	10704.642566341631	97
0	34264	10706.577101598963	96
0	34267	10708.555969434142	95
0	34271	10709.084782917654	96
0	34272	10709.964254297413	95
0	34276	10710.877009601042	96
0	34277	10711.364924040906	95
0	34281	10711.749699542363	96
0	34283	10712.021535483192	97
0	34285	10712.40125503887	98
0	34286	10712.594621257581	97
0	34290	10714.541532506674	98
0	34291	10714.574232614137	97
0	34296	10716.079024145104	96
0	34300	10717.579837025788	97
0	34301	10717.770111258425	96
0	34304	10719.059572712243	95
0	34308	10719.104152559548	96
0	34309	10720.973414899134	95
0	34313	10721.058918802867	96
0	34314	10722.302305459701	95
0	34318	10723.118557637539	96
0	34320	10723.540387815116	97
0	34322	10723.854784199892	98
0	34323	10724.271949385763	97
0	34327	10724.69908137873	98
0	34328	10725.556752158799	97
0	34332	10726.126293417432	98
0	34333	10726.943516182625	97
0	34337	10727.684062825509	98
0	34338	10728.904737525159	97
0	34342	10729.50292931867	98
0	34344	10729.74844976539	99
0	34345	10730.343999626586	98
0	34348	10731.830689631874	97
0	34351	10733.126577438513	96
0	34355	10733.14794859659	97
0	34357	10733.318578899198	98
0	34360	10735.024502741831	97
0	34363	10736.324851313705	96
0	34367	10736.46175098755	97
0	34369	10737.427463378864	98
0	34370	10738.085536221328	97
0	34374	10738.767034919315	98
0	34375	10740.032034942421	97
0	34381	10740.824045401541	98
0	34382	10741.295587737585	97
0	34385	10742.513262811961	96
0	34389	10742.54865518005	97
0	34392	10744.016918579216	96
0	34396	10744.427221734794	97
0	34398	10744.495596000011	98
0	34399	10745.308590834874	97
0	34402	10746.995048935811	96
0	34407	10748.518089046056	95
0	34411	10749.529657120674	96
0	34413	10750.004121817394	97
0	34414	10750.381277131202	96
0	34418	10751.03404353331	97
0	34420	10751.157773921849	98
0	34422	10751.248672897019	99
0	34423	10751.613285549829	98
0	34426	10752.823686696502	97
0	34430	10752.920530582595	98
0	34431	10754.742310655403	97
0	34435	10755.409527141669	98
0	34437	10756.160299539407	99
0	34438	10756.609825367208	98
0	34441	10757.887626516174	97
0	34445	10758.05908147614	98
0	34446	10759.450042207639	97
0	34450	10759.48936690103	98
0	34452	10759.691016303936	99
0	34454	10760.79449900141	100
0	34455	10761.08619316342	99
0	34459	10762.683646475196	100
0	34461	10762.883899290238	101
0	34462	10762.936902424793	100
0	34466	10763.449858289202	101
0	34468	10764.075187973949	102
0	34469	10764.179528322171	101
0	34473	10764.619429636549	102
0	34475	10765.156532638263	103
0	34476	10765.609255711276	102
0	34480	10765.954702304293	103
0	34482	10766.289385266143	104
0	34483	10767.441002584349	103
0	34486	10769.051030674118	102
0	34490	10769.486765902571	103
0	34491	10770.913343064773	102
0	34494	10772.156882770087	101
0	34498	10772.492235416764	102
0	34500	10773.730020938227	103
0	34501	10774.050242514822	102
0	34505	10774.300182310789	103
0	34506	10775.326681229386	102
0	34509	10776.615493365664	101
0	34513	10777.411892453319	102
0	34514	10777.856713526051	101
0	34517	10779.232452468115	100
0	34521	10779.354576620401	101
0	34522	10780.653343919019	100
0	34526	10782.3255690794	101
0	34527	10782.537388094987	100
0	34530	10783.76945847376	99
0	34534	10783.900112281131	100
0	34535	10785.709455498408	99
0	34539	10786.482282509085	100
0	34540	10787.221511615727	99
0	34544	10788.371622613046	100
0	34545	10788.69616705301	99
0	34549	10789.527238499251	100
0	34550	10790.649560443598	99
0	34554	10791.196509531028	100
0	34555	10792.39595265622	99
0	34558	10793.989434088494	98
0	34562	10794.762516686465	99
0	34563	10795.790039649706	98
0	34567	10795.843058973681	99
0	34568	10797.182218823682	98
0	34572	10797.872606733257	99
0	34573	10798.724521847169	98
0	34577	10798.96403848302	99
0	34579	10799.377998852977	100
0	34580	10800.676946575667	99
0	34583	10802.384639449704	98
0	34587	10803.81959105559	99
0	34588	10804.263336697693	98
0	34592	10804.420744544237	99
0	34594	10804.475606896886	100
0	34595	10805.824837907131	99
0	34599	10805.927012330834	100
0	34600	10807.527008704382	99
0	34603	10809.337186594593	98
0	34606	10811.061070750381	97
0	34609	10812.987026162732	96
0	34612	10814.41949135578	95
0	34616	10815.24495858236	96
0	34617	10815.983381663549	95
0	34620	10817.290497036937	94
0	34624	10819.04663354115	95
0	34625	10819.163842236723	94
0	34629	10820.227817795842	95
0	34630	10820.782322532597	94
0	34634	10822.286094728889	95
0	34636	10822.376727518433	96
0	34637	10822.649122902851	95
0	34641	10822.717748159494	96
0	34642	10824.098512567494	95
0	34646	10824.378630476933	96
0	34647	10825.586398796651	95
0	34651	10825.944818678581	96
0	34653	10826.215334485285	97
0	34654	10827.391357454199	96
0	34657	10829.121718451667	95
0	34661	10829.398393806936	96
0	34662	10830.363207259688	95
0	34666	10830.484445599861	96
0	34667	10831.613738405991	95
0	34671	10831.696924445646	96
0	34673	10832.516616440141	97
0	34677	10832.568080632678	98
0	34678	10833.588354742441	97
0	34681	10835.119663315553	96
0	34684	10836.618747288834	95
0	34687	10837.903091576609	94
0	34690	10839.449955722976	93
0	34693	10841.412954346377	92
0	34697	10842.217935216011	93
0	34699	10842.690035654432	94
0	34700	10843.018585777755	93
0	34703	10844.343071246619	92
0	34707	10845.271259189202	93
0	34708	10846.049028927001	92
0	34712	10846.402163156334	93
0	34714	10847.134141437398	94
0	34715	10847.568278762053	93
0	34718	10848.864743645775	92
0	34721	10850.090853016364	91
0	34724	10852.066024869035	90
0	34727	10853.564622687834	89
0	34731	10854.052508820673	90
0	34733	10854.153807580326	91
0	34735	10854.254924160047	92
0	34737	10854.4481870946	93
0	34738	10855.515455868753	92
0	34742	10855.67343776028	93
0	34744	10855.700258755897	94
0	34746	10856.69814668452	95
0	34748	10856.846362128886	96
0	34750	10857.143302001571	97
0	34751	10857.219424277829	96
0	34755	10858.046978026981	97
0	34756	10858.535078463243	96
0	34760	10859.604281650406	97
0	34761	10860.526682447927	96
0	34765	10860.776626879081	97
0	34766	10862.007515174622	96
0	34770	10862.976537728022	97
0	34771	10863.925132142106	96
0	34774	10865.744582932541	95
0	34778	10866.769540041183	96
0	34780	10866.940856336038	97
0	34781	10867.521260867366	96
0	34785	10867.655157637246	97
0	34787	10868.002031137887	98
0	34788	10869.005441725725	97
0	34791	10870.330335324729	96
0	34794	10871.609475962358	95
0	34798	10871.924086262911	96
0	34799	10873.504297247442	95
0	34803	10873.8182545583	96
0	34805	10874.24692857943	97
0	34806	10875.169679069805	96
0	34810	10876.124764030556	97
0	34811	10877.145274644258	96
0	34816	10878.3636891882	95
0	34821	10880.238429161447	94
0	34825	10880.461688631242	95
0	34826	10881.565974900785	94
0	34830	10883.108740024812	95
0	34832	10883.257282407611	96
0	34833	10883.293147222797	95
0	34837	10884.65323008746	96
0	34838	10884.913645578275	95
0	34842	10886.280284621307	96
0	34843	10886.69436918358	95
0	34847	10886.780668019697	96
0	34849	10887.309956752911	97
0	34850	10888.507549551601	96
0	34853	10889.738899096573	95
0	34857	10890.093462453503	96
0	34858	10891.303639382223	95
0	34861	10892.56428315668	94
0	34865	10893.189421331139	95
0	34866	10894.040730517643	94
0	34870	10894.439361143465	95
0	34872	10895.684115173019	96
0	34873	10895.954671228776	95
0	34876	10897.182188621449	94
0	34879	10898.948232002283	93
0	34883	10899.909686158972	94
0	34885	10900.734957781233	95
0	34886	10900.895650004322	94
0	34889	10902.805709544296	93
0	34893	10902.961306762972	94
0	34895	10903.683752268512	95
0	34896	10904.340079574014	94
0	34899	10905.795542848024	93
0	34903	10906.226726525616	94
0	34904	10907.19501192617	93
0	34908	10907.752913594844	94
0	34909	10909.054057972978	93
0	34912	10910.688622068527	92
0	34918	10911.613807694803	93
0	34920	10911.702886129168	94
0	34921	10912.260400677199	93
0	34925	10912.766622912336	94
0	34927	10913.367616346517	95
0	34928	10914.070509097266	94
0	34932	10914.607201846415	95
0	34933	10915.313140956226	94
0	34936	10917.027718654747	93
0	34940	10918.320890327771	94
0	34941	10918.352390657465	93
0	34945	10918.469489181602	94
0	34947	10919.750536743462	95
0	34949	10919.846082791124	96
0	34950	10920.120228425327	95
0	34954	10920.818329889099	96
0	34955	10921.768958195958	95
0	34959	10922.842218638151	96
0	34960	10923.118845959481	95
0	34964	10924.034426062972	96
0	34965	10924.863782556269	95
0	34968	10926.257207554493	94
0	34971	10927.7764082308	93
0	34975	10928.711731218643	94
0	34976	10929.453648667324	93
0	34979	10930.753163219716	92
0	34983	10930.990801633618	93
0	34985	10931.006841509806	94
0	34987	10932.485933989572	95
0	34988	10932.526379230719	94
0	34992	10932.847705314685	95
0	34994	10933.412136735536	96
0	34995	10934.341539283011	95
0	34998	10936.323601111125	94
0	35002	10936.807435754204	95
0	35003	10938.259127224151	94
0	35007	10940.148379491268	95
0	35008	10940.15220939583	94
0	35012	10940.447828702479	95
0	35014	10940.457338726724	96
0	35015	10941.352524160136	95
0	35018	10943.247566264038	94
0	35021	10944.993081235801	93
0	35024	10946.714957018298	92
0	35027	10948.553026086193	91
0	35031	10950.124502265943	92
0	35032	10950.364725326848	91
0	35035	10951.717882930775	90
0	35039	10952.443586676392	91
0	35040	10953.627818339978	90
0	35044	10954.91290917961	91
0	35045	10954.968360081044	90
0	35048	10956.300764315304	89
0	35052	10956.655279150371	90
0	35054	10957.013012214793	91
0	35055	10957.999820935455	90
0	35059	10958.959260300204	91
0	35060	10959.845131382075	90
0	35064	10960.95592800664	91
0	35065	10961.539352069897	90
0	35069	10961.742977474215	91
0	35071	10962.880161922512	92
0	35072	10963.195951443081	91
0	35076	10963.348539274186	92
0	35078	10963.400293967849	93
0	35079	10964.505128412237	92
0	35082	10966.138098224913	91
0	35086	10967.252616391535	92
0	35087	10967.478259060447	91
0	35091	10967.713619113555	92
0	35093	10969.220292221148	93
0	35094	10969.313079500486	92
0	35097	10970.579095029001	91
0	35101	10971.706497705346	92
0	35102	10971.973010016707	91
0	35106	10971.979072748564	92
0	35107	10973.8665105044	91
0	35110	10975.500318567371	90
0	35114	10975.91490527826	91
0	35115	10976.810020919247	90
0	35118	10978.141680363296	89
0	35122	10978.457156361152	90
0	35123	10979.805311605437	89
0	35126	10981.739251556909	88
0	35130	10981.867952957182	89
0	35131	10983.616071769698	88
0	35135	10984.023898995759	89
0	35136	10985.434836376561	88
0	35140	10986.657324016494	89
0	35141	10986.886076166025	88
0	35145	10986.969214628234	89
0	35147	10987.834096447769	90
0	35148	10988.563560669786	89
0	35152	10988.600491386679	90
0	35154	10989.34811604447	91
0	35156	10989.40939779785	92
0	35157	10990.278221001579	91
0	35161	10990.829850583918	92
0	35162	10992.234535212918	91
0	35165	10994.173085940174	90
0	35168	10995.999985911801	89
0	35172	10996.146824650051	90
0	35174	10997.28621989475	91
0	35175	10997.811844886757	90
0	35178	10999.019657475605	89
0	35182	11000.055175701013	90
0	35185	11000.507805446453	89
0	35189	11000.627562739148	90
0	35190	11001.815865259535	89
0	35194	11001.956263096538	90
0	35196	11002.561097209755	91
0	35198	11003.298057158998	92
0	35199	11003.469522337719	91
0	35202	11005.249383651196	90
0	35206	11006.609051158628	91
0	35207	11006.83519432108	90
0	35211	11007.181587417906	91
0	35213	11007.752177318671	92
0	35214	11008.757862479715	91
0	35217	11010.66582749012	90
0	35221	11010.919629776111	91
0	35223	11011.656477422313	92
0	35224	11011.95956600654	91
0	35228	11012.566291885697	92
0	35229	11013.211740865661	91
0	35233	11014.760328171282	92
0	35234	11015.003438828616	91
0	35237	11016.250506589665	90
0	35241	11016.989275471477	91
0	35243	11017.460624571494	92
0	35245	11017.510356788826	93
0	35246	11017.712040500819	92
0	35250	11018.024680083085	93
0	35252	11018.108517453491	94
0	35254	11018.373127727421	95
0	35255	11019.332037325493	94
0	35258	11021.268392608977	93
0	35261	11022.860390838339	92
0	35265	11023.885436303025	93
0	35266	11024.106323261662	92
0	35270	11025.593189969325	93
0	35271	11025.805346312104	92
0	35274	11027.607737968406	91
0	35277	11029.18640393625	90
0	35281	11030.22567454487	91
0	35283	11030.511991118347	92
0	35284	11030.710275815157	91
0	35288	11032.173678734024	92
0	35289	11032.480703447303	91
0	35292	11034.268655982902	90
0	35295	11035.532174542835	89
0	35299	11036.268506093676	90
0	35300	11037.341447601197	89
0	35303	11038.786000638185	88
0	35307	11039.981011236018	89
0	35308	11040.029328812016	88
0	35312	11040.212822355925	89
0	35313	11041.495310494965	88
0	35317	11041.897553477217	89
0	35318	11043.243061160212	88
0	35321	11044.992742556808	87
0	35325	11046.248587036309	88
0	35327	11046.4873784525	89
0	35329	11046.91743292551	90
0	35330	11046.961974800666	89
0	35333	11048.427849062261	88
0	35337	11049.155875739739	89
0	35338	11050.386705291	88
0	35341	11052.218891788375	87
0	35345	11052.615162462143	88
0	35347	11052.774308101841	89
0	35348	11053.426783892427	88
0	35352	11054.236481736254	89
0	35354	11054.901278754065	90
0	35355	11054.979974638585	89
0	35359	11055.843077261428	90
0	35360	11056.324977225725	89
0	35365	11057.5959152571	88
0	35369	11057.635676844862	89
0	35371	11058.207803575083	90
0	35373	11058.821510449907	91
0	35375	11058.87714603525	92
0	35376	11059.050429324348	91
0	35379	11060.610823474739	90
0	35382	11061.846966663104	89
0	35386	11062.191997572873	90
0	35387	11063.309122697179	89
0	35391	11063.499741231694	90
0	35392	11064.819039092873	89
0	35396	11064.931546576654	90
0	35397	11066.605407020923	89
0	35401	11067.889544248508	90
0	35402	11068.452437026341	89
0	35406	11068.554112252645	90
0	35408	11069.818672575739	91
0	35409	11070.369867890429	90
0	35413	11071.121057777292	91
0	35414	11071.578622183491	90
0	35418	11073.185280452598	91
0	35419	11073.464658373137	90
0	35422	11075.446639881385	89
0	35426	11076.03106599299	90
0	35427	11076.764288028432	89
0	35431	11077.022692478624	90
0	35432	11078.413311778298	89
0	35436	11079.612763411499	90
0	35437	11080.048412642172	89
0	35441	11080.292558691536	90
0	35443	11081.463498173315	91
0	35445	11081.680377399903	92
0	35446	11081.862154918267	91
0	35450	11082.617200554999	92
0	35453	11083.558914747192	91
0	35456	11085.447757258928	90
0	35463	11086.959017856895	89
0	35466	11088.822351499005	88
0	35469	11090.554154615766	87
0	35473	11091.666342977286	88
0	35475	11091.82761342387	89
0	35476	11091.922567677787	88
0	35480	11092.758341162988	89
0	35481	11093.357956043547	88
0	35485	11093.991611805045	89
0	35486	11094.958775510369	88
0	35489	11096.744360385565	87
0	35493	11098.095136603956	88
0	35494	11098.307499693623	87
0	35497	11100.205817243373	86
0	35501	11101.092490512706	87
0	35502	11102.027241342431	86
0	35505	11103.774430644801	85
0	35509	11104.289172646422	86
0	35511	11104.632880121055	87
0	35513	11104.832654806953	88
0	35514	11105.34420751418	87
0	35518	11105.705375604555	88
0	35519	11107.143473927593	87
0	35524	11109.006403942509	86
0	35528	11109.186104561102	87
0	35529	11110.99163938026	86
0	35533	11112.253240280964	87
0	35534	11112.671479291572	86
0	35537	11114.345184288836	85
0	35541	11114.65175306563	86
0	35542	11115.574995023488	85
0	35545	11117.538573905929	84
0	35549	11117.718326847926	85
0	35551	11118.349701229013	86
0	35552	11119.026023457303	85
0	35556	11120.039790049034	86
0	35560	11120.339681379024	87
0	35561	11120.869625344045	86
0	35565	11121.204927473012	87
0	35567	11121.269870753088	88
0	35568	11122.743088684149	87
0	35571	11124.020020620443	86
0	35574	11125.444314018369	85
0	35578	11125.843804402973	86
0	35580	11126.618748305097	87
0	35582	11126.643683115714	88
0	35583	11127.403322312154	87
0	35587	11127.648223404859	88
0	35588	11128.701909738511	87
0	35592	11130.136095099208	88
0	35593	11130.631590511009	87
0	35597	11132.226819602239	88
0	35598	11132.273641272738	87
0	35602	11133.43069532397	88
0	35604	11133.563942107454	89
0	35605	11133.835710670158	88
0	35609	11134.411960297733	89
0	35610	11135.224066607013	88
0	35613	11136.458582330413	87
0	35616	11138.0148573042	86
0	35620	11138.417404556045	87
0	35621	11139.296680724725	86
0	35624	11141.245703463361	85
0	35627	11142.95459208145	84
0	35631	11143.157819747747	85
0	35633	11143.284409028976	86
0	35634	11144.263290954672	85
0	35638	11144.717394096564	86
0	35639	11145.877688381739	85
0	35643	11146.296231800806	86
0	35645	11146.483811273885	87
0	35646	11147.499903982423	86
0	35650	11148.278152263287	87
0	35651	11149.085327355854	86
0	35655	11149.586589715805	87
0	35657	11150.821908645393	88
0	35658	11150.950091848999	87
0	35662	11151.215280400971	88
0	35663	11152.873808245465	87
0	35666	11154.676467490673	86
0	35669	11156.132000606798	85
0	35673	11156.411275456421	86
0	35675	11156.439053051639	87
0	35676	11157.394461838261	86
0	35680	11157.830490113972	87
0	35681	11158.994619000063	86
0	35685	11159.194011487781	87
0	35686	11160.196418714815	86
0	35689	11161.442609913753	85
0	35693	11161.808143297476	86
0	35695	11162.150183619105	87
0	35696	11163.281942435274	86
0	35700	11163.67261060178	87
0	35701	11164.565901694926	86
0	35705	11165.595407698823	87
0	35706	11166.009699853803	86
0	35710	11167.200441396039	87
0	35711	11167.864190553795	86
0	35714	11169.375555595677	85
0	35718	11170.345028194224	86
0	35719	11170.818645806159	85
0	35723	11171.037765752302	86
0	35724	11172.752930483888	85
0	35728	11173.902569916486	86
0	35729	11174.143257469046	85
0	35732	11175.751451177443	84
0	35736	11176.268192715799	85
0	35738	11176.537301091234	86
0	35740	11177.126023508382	87
0	35741	11177.208373786616	86
0	35745	11178.016373648313	87
0	35746	11179.113212894942	86
0	35750	11180.206554164648	87
0	35754	11180.743480214462	88
0	35755	11180.833081000964	87
0	35758	11182.086171388733	86
0	35764	11182.359108302256	87
0	35766	11183.950307304541	88
0	35767	11184.076163308802	87
0	35770	11185.34796689182	86
0	35774	11186.445371108276	87
0	35775	11186.548388056005	86
0	35779	11187.812347654434	87
0	35781	11188.001074201386	88
0	35782	11188.131148080262	87
0	35786	11188.219296516093	88
0	35788	11189.424638017972	89
0	35789	11190.115502533982	88
0	35792	11191.871184503952	87
0	35796	11192.927520590232	88
0	35798	11192.961818363278	89
0	35799	11193.175197880635	88
0	35802	11194.711179132307	87
0	35805	11196.703429292807	86
0	35809	11198.318188203702	87
0	35810	11198.319457251126	86
0	35813	11199.523344412739	85
0	35817	11200.899391364132	86
0	35819	11200.908468094478	87
0	35820	11201.097815013225	86
0	35824	11202.888943178418	87
0	35825	11202.934354800465	86
0	35829	11204.625235199279	87
0	35831	11204.828470987194	88
0	35832	11204.865746853607	87
0	35838	11205.773315122753	88
0	35840	11206.058757880051	89
0	35841	11206.440871794814	88
0	35845	11206.707703948558	89
0	35846	11208.4103863462	88
0	35849	11209.854824710929	87
0	35853	11210.160441635086	88
0	35855	11210.170141450116	89
0	35857	11210.657155509166	90
0	35858	11211.556772703224	89
0	35864	11212.119980656009	90
0	35865	11213.217110175745	89
0	35868	11215.008352193901	88
0	35872	11215.20666475598	89
0	35873	11216.332291611204	88
0	35877	11216.885278979058	89
0	35878	11217.579923544558	88
0	35882	11218.735185727081	89
0	35883	11219.151419153916	88
0	35886	11220.881668354491	87
0	35889	11222.284120130273	86
0	35892	11223.803585134553	85
0	35896	11224.893171111853	86
0	35897	11225.133030805843	85
0	35901	11226.084859989243	86
0	35904	11226.868658491517	85
0	35908	11227.127214728389	86
0	35910	11227.134385505595	87
0	35911	11228.694464357676	86
0	35915	11229.710495978203	87
0	35916	11230.124013895461	86
0	35920	11230.783708959115	87
0	35922	11231.181339225243	88
0	35923	11231.570270299459	87
0	35929	11233.259677079514	88
0	35930	11233.354642994994	87
0	35933	11234.955016268896	86
0	35937	11235.083240049163	87
0	35939	11235.630354880182	88
0	35941	11235.641022772264	89
0	35942	11236.200613830159	88
0	35945	11237.467143386337	87
0	35948	11239.210993933412	86
0	35951	11240.477207317683	85
0	35955	11241.243126112439	86
0	35957	11241.579414045192	87
0	35958	11241.854494095701	86
0	35962	11243.284023375511	87
0	35963	11243.42633355103	86
0	35966	11244.72227908663	85
0	35970	11245.517259220984	86
0	35972	11245.673707843478	87
0	35974	11246.015618917277	88
0	35975	11246.186032032329	87
0	35979	11246.373042306408	88
0	35980	11247.401158473562	87
0	35985	11249.189574461724	86
0	35988	11250.978459474924	85
0	35992	11251.115167705053	86
0	35996	11252.603177690852	87
0	35997	11252.859658935214	86
0	36000	11254.145168163548	85
0	36004	11254.735993324333	86
0	36005	11255.618951436239	85
0	36009	11255.793871599677	86
0	36011	11255.872743754355	87
0	36013	11256.019296966808	88
0	36014	11257.339785763356	87
0	36018	11258.394098500731	88
0	36020	11258.802937948754	89
0	36021	11259.032986855055	88
0	36025	11260.402870322873	89
0	36026	11260.776112194652	88
0	36030	11261.634184686214	89
0	36031	11262.061820062543	88
0	36035	11262.838534212688	89
0	36036	11263.293965470898	88
0	36040	11263.685955625778	89
0	36042	11263.806870250871	90
0	36043	11264.732826726991	89
0	36046	11266.321755226995	88
0	36050	11266.59302428503	89
0	36051	11267.736800950128	88
0	36055	11268.835720523347	89
0	36056	11269.111129023242	88
0	36060	11269.859827889779	89
0	36062	11270.241807566394	90
0	36063	11270.886395333815	89
0	36067	11271.991275540474	90
0	36068	11272.749592873748	89
0	36071	11274.612614722844	88
0	36075	11274.980465356875	89
0	36077	11276.048315626326	90
0	36078	11276.29756258532	89
0	36082	11276.992326407045	90
0	36083	11277.863316891078	89
0	36087	11278.127648303884	90
0	36088	11279.862383933287	89
0	36091	11281.836616382111	88
0	36094	11283.08254560243	87
0	36098	11283.586302770476	88
0	36099	11284.504238166582	87
0	36103	11286.094254174074	88
0	36104	11286.309217212457	87
0	36107	11287.529638979692	86
0	36111	11287.787681777051	87
0	36113	11289.012956735731	88
0	36114	11289.045553872097	87
0	36118	11290.031457060896	88
0	36119	11290.486694777306	87
0	36123	11290.963130733037	88
0	36125	11291.453404244138	89
0	36126	11292.345897131894	88
0	36130	11292.350204614095	89
0	36132	11292.817478049933	90
0	36134	11293.422724261057	91
0	36135	11293.674836615768	90
0	36139	11293.940226873539	91
0	36140	11295.33128807835	90
0	36144	11295.885549109243	91
0	36145	11296.616756672521	90
0	36148	11298.414101241452	89
0	36151	11300.061510225122	88
0	36154	11301.769062738602	87
0	36158	11302.331219273572	88
0	36160	11302.745736769351	89
0	36161	11303.753727659506	88
0	36165	11303.96569224782	89
0	36167	11304.110286912697	90
0	36168	11305.000489788239	89
0	36172	11305.516251979512	90
0	36174	11306.341769900453	91
0	36175	11306.39548163369	90
0	36178	11307.712591578734	89
0	36181	11309.259108846743	88
0	36187	11310.456436224517	89
0	36188	11310.853635936898	88
0	36192	11311.014545610519	89
0	36193	11312.400711797287	88
0	36197	11314.089542984629	89
0	36198	11314.355353663412	88
0	36202	11314.420648515696	89
0	36203	11315.962774820549	88
0	36208	11317.936729009373	87
0	36212	11318.453756992814	88
0	36214	11318.611429631487	89
0	36215	11319.308380564039	88
0	36218	11320.998511663934	87
0	36222	11321.224102556927	88
0	36223	11322.874946493765	87
0	36227	11323.285373404945	88
0	36228	11324.698608741274	87
0	36232	11325.849737094146	88
0	36233	11326.322333852311	87
0	36237	11326.628454089123	88
0	36241	11327.917956187833	89
0	36242	11328.29885935161	88
0	36246	11329.295074917177	89
0	36247	11329.81721061479	88
0	36250	11331.129145617519	87
0	36253	11333.12361975975	86
0	36256	11334.875543535982	85
0	36260	11335.574900873355	86
0	36261	11336.166999978495	85
0	36265	11337.141607560765	86
0	36266	11337.635680516546	85
0	36269	11339.108007880223	84
0	36273	11339.861291109817	85
0	36274	11340.581430574988	84
0	36278	11341.027206134259	85
0	36279	11342.29248031724	84
0	36282	11343.549603464005	83
0	36285	11345.302450124097	82
0	36289	11346.605969575473	83
0	36291	11346.677558441871	84
0	36293	11346.943272484889	85
0	36294	11346.946475015503	84
0	36298	11347.812330918793	85
0	36299	11348.758698948023	84
0	36303	11349.783917735673	85
0	36305	11349.867837489623	86
0	36306	11350.01895009998	85
0	36309	11351.657029093353	84
0	36312	11353.373099129384	83
0	36315	11355.033722429646	82
0	36319	11356.47603931909	83
0	36320	11356.551440159527	82
0	36323	11358.455817745363	81
0	36327	11358.663087966361	82
0	36329	11358.709462600622	83
0	36330	11359.857580481952	82
0	36334	11360.95688596615	83
0	36335	11361.585430030076	82
0	36340	11362.884774752444	81
0	36343	11364.785120015329	80
0	36346	11366.157752334064	79
0	36350	11367.050282219269	80
0	36351	11367.610150751209	79
0	36355	11368.147914123172	80
0	36357	11368.848807942049	81
0	36358	11368.964908853283	80
0	36362	11369.446498510421	81
0	36363	11370.626724341435	80
0	36367	11371.255744423629	81
0	36369	11371.885788388656	82
0	36370	11372.34135195717	81
0	36374	11372.815604611178	82
0	36375	11374.288117591774	81
0	36381	11375.219846252347	82
0	36382	11375.492156390024	81
0	36386	11375.566370235487	82
0	36387	11377.213292720651	81
0	36390	11378.644355165137	80
0	36394	11378.797090798831	81
0	36396	11378.994139793174	82
0	36397	11380.023402731789	81
0	36401	11380.608080406217	82
0	36403	11380.7275271901	83
0	36404	11382.003673859236	82
0	36407	11383.923629340825	81
0	36411	11385.378569630518	82
0	36413	11385.412050063558	83
0	36414	11385.621913321053	82
0	36418	11386.965684885502	83
0	36419	11387.269944444594	82
0	36423	11387.435687068734	83
0	36425	11387.478901687209	84
0	36426	11388.563699970503	83
0	36429	11389.763763117154	82
0	36433	11390.30487202025	83
0	36434	11391.658270405342	82
0	36438	11392.593146570598	83
0	36440	11393.260614052776	84
0	36441	11393.451499603984	83
0	36445	11393.460759906896	84
0	36446	11395.393705745523	83
0	36450	11396.663815517849	84
0	36451	11396.941544767019	83
0	36455	11397.011516155665	84
0	36457	11398.154489642131	85
0	36458	11398.481425657604	84
0	36462	11398.496227958262	85
0	36463	11400.414811196845	84
0	36466	11402.198840585273	83
0	36470	11402.522916083949	84
0	36472	11402.598028604141	85
0	36473	11404.01093221746	84
0	36476	11405.625478631552	83
0	36479	11407.196884846981	82
0	36483	11407.474782544429	83
0	36485	11407.502238281623	84
0	36487	11407.895608249775	85
0	36488	11408.461134294155	84
0	36491	11409.735311518903	83
0	36495	11410.089806695637	84
0	36499	11410.570107195987	85
0	36501	11411.170584140474	86
0	36502	11411.696357431742	85
0	36506	11412.470776632654	86
0	36507	11413.141929653394	85
0	36510	11414.50062707338	84
0	36514	11415.405509015612	85
0	36515	11416.338291247482	84
0	36519	11416.705416096185	85
0	36520	11417.569265493671	84
0	36523	11419.55862485982	83
0	36527	11420.801673349504	84
0	36528	11421.228195782485	83
0	36531	11423.025166596951	82
0	36536	11424.544403493511	81
0	36540	11425.043817318659	82
0	36541	11426.261695815357	81
0	36545	11426.566521411436	82
0	36547	11426.807793492988	83
0	36549	11426.84062560596	84
0	36550	11427.572968983943	83
0	36554	11427.936597220996	84
0	36555	11429.158852080362	83
0	36559	11430.514179284383	84
0	36560	11430.995372930462	83
0	36564	11431.523438362461	84
0	36565	11432.494048335324	83
0	36568	11433.805301875728	82
0	36571	11435.661468519005	81
0	36574	11437.37654795825	80
0	36578	11438.112752012276	81
0	36580	11438.184075866367	82
0	36581	11438.654196462515	81
0	36585	11440.451066675412	82
0	36586	11440.559785633269	81
0	36590	11440.785344034853	82
0	36591	11441.783559970665	81
0	36595	11442.542157004717	82
0	36597	11443.66563930608	83
0	36598	11443.758783753696	82
0	36602	11444.851971027868	83
0	36603	11445.666268079649	82
0	36606	11447.261419241238	81
0	36610	11447.8483712132	82
0	36611	11449.045392005439	81
0	36615	11449.742906452465	82
0	36616	11450.5273635368	81
0	36620	11450.758643427684	82
0	36622	11451.535767537364	83
0	36623	11452.344585247817	82
0	36626	11454.177610786738	81
0	36630	11455.125004403282	82
0	36631	11455.499998927968	81
0	36635	11455.526275201666	82
0	36636	11456.95267292309	81
0	36640	11457.105355449639	82
0	36641	11458.744957608836	81
0	36645	11459.206127599993	82
0	36647	11459.788894411472	83
0	36649	11459.982568211561	84
0	36650	11460.162503856899	83
0	36654	11461.953411153487	84
0	36655	11461.985826188804	83
0	36658	11463.871707567119	82
0	36661	11465.86573012668	81
0	36665	11467.017172101948	82
0	36666	11467.323485301354	81
0	36670	11467.966379766688	82
0	36672	11468.735043678565	83
0	36673	11469.260173294799	82
0	36676	11470.879679243372	81
0	36680	11471.027399659975	82
0	36682	11471.563781022375	83
0	36684	11471.81547272701	84
0	36685	11472.42009888246	83
0	36689	11472.888302220142	84
0	36690	11473.86567602671	83
0	36694	11474.175923799952	84
0	36695	11475.216424992785	83
0	36699	11476.540415331548	84
0	36700	11476.795173861191	83
0	36704	11477.354067502795	84
0	36705	11478.532039721415	83
0	36708	11480.089492444613	82
0	36711	11481.477671792277	81
0	36715	11482.126398428191	82
0	36716	11482.8700495395	81
0	36719	11484.732217117318	80
0	36722	11486.247973927402	79
0	36726	11487.078361616356	80
0	36727	11487.697597518669	79
0	36731	11489.194433044217	80
0	36732	11489.580593517715	79
0	36736	11490.476448222746	80
0	36737	11491.310403700838	79
0	36741	11491.326408189727	80
0	36742	11492.951187498229	79
0	36746	11494.105864505123	80
0	36747	11494.394539302694	79
0	36751	11494.602825604984	80
0	36752	11496.005411033625	79
0	36756	11496.447131056558	80
0	36758	11496.554161134077	81
0	36759	11497.977330591263	80
0	36763	11498.760061861823	81
0	36764	11499.690075081134	80
0	36768	11500.392590187257	81
0	36770	11500.443126595167	82
0	36771	11501.035436551379	81
0	36775	11501.89616266478	82
0	36776	11502.681108395861	81
0	36779	11504.521655935155	80
0	36782	11505.876668280469	79
0	36785	11507.735909250671	78
0	36789	11508.808037707349	79
0	36790	11509.162871346543	78
0	36794	11510.302357543556	79
0	36795	11510.793186168293	78
0	36799	11511.569883533932	79
0	36800	11512.015995030212	78
0	36803	11513.367648843596	77
0	36807	11513.373835204708	78
0	36809	11514.150303848382	79
0	36810	11514.94003510877	78
0	36813	11516.249220585185	77
0	36816	11518.238905027802	76
0	36820	11518.929065332859	77
0	36821	11519.967377128373	76
0	36824	11521.364136723536	75
0	36828	11521.557135703251	76
0	36831	11522.847243980239	75
0	36835	11523.35535577001	76
0	36836	11524.099820081438	75
0	36840	11525.427882910479	76
0	36841	11525.492218843955	75
0	36844	11527.104646940451	74
0	36847	11529.008981383514	73
0	36851	11529.484540939999	74
0	36852	11530.814116967764	73
0	36856	11532.002256716773	74
0	36857	11532.662462301847	73
0	36861	11532.67354122125	74
0	36862	11534.484264808257	73
0	36866	11534.60422266742	74
0	36868	11534.897735140996	75
0	36870	11535.310306388706	76
0	36871	11536.339996457954	75
0	36875	11536.759450532175	76
0	36877	11537.415853319608	77
0	36879	11537.545571301405	78
0	36880	11538.208015976955	77
0	36884	11538.623573984378	78
0	36886	11538.629749455198	79
0	36887	11539.971768382859	78
0	36891	11540.519914918015	79
0	36892	11541.482775341083	78
0	36896	11542.512743165614	79
0	36897	11543.231788567376	78
0	36901	11543.293296650947	79
0	36902	11544.609700228941	78
0	36906	11544.858227101726	79
0	36907	11545.913883696977	78
0	36911	11546.912934565017	79
0	36912	11547.683029071908	78
0	36916	11548.12406782003	79
0	36918	11548.731322093505	80
0	36919	11549.230327873226	79
0	36923	11549.496083347815	80
0	36924	11550.817598380442	79
0	36927	11552.219623159725	78
0	36932	11553.478374100957	77
0	36936	11554.283808806845	78
0	36937	11555.146957014609	77
0	36940	11556.584555765722	76
0	36944	11557.627146881475	77
0	36946	11557.978155670993	78
0	36947	11558.040011888851	77
0	36950	11559.962830580321	76
0	36954	11560.650397235813	77
0	36956	11560.758791392536	78
0	36958	11561.010553284486	79
0	36959	11561.613563108553	78
0	36962	11563.062122862709	77
0	36966	11564.256435609908	78
0	36967	11564.270505883281	77
0	36970	11566.219005028081	76
0	36973	11567.674574218985	75
0	36977	11567.974826703537	76
0	36978	11569.099713471081	75
0	36982	11569.101434148596	76
0	36983	11570.500646176483	75
0	36987	11570.690171540198	76
0	36989	11571.714356988725	77
0	36990	11572.24319458596	76
0	36994	11572.404727062126	77
0	36995	11573.848394898805	76
0	36998	11575.502402401823	75
0	37002	11576.010747406788	76
0	37003	11576.735408498827	75
0	37007	11577.988532825105	76
0	37008	11578.624033419523	75
0	37012	11579.467170450572	76
0	37013	11580.115106478069	75
0	37017	11581.099367533855	76
0	37019	11581.218647037542	77
0	37020	11581.918295051638	76
0	37024	11583.526078149573	77
0	37025	11583.630285633463	76
0	37029	11583.928620503372	77
0	37031	11585.261473220316	78
0	37032	11585.549376842301	77
0	37035	11587.221176210712	76
0	37038	11588.670987438518	75
0	37041	11590.423168697688	74
0	37044	11591.85100976612	73
0	37048	11592.701873346001	74
0	37049	11593.400177356336	73
0	37053	11593.58886337656	74
0	37055	11593.63719032737	75
0	37057	11593.839023963411	76
0	37059	11594.415248307598	77
0	37060	11595.398186667744	76
0	37064	11596.199968102722	77
0	37065	11597.099678424295	76
0	37069	11598.083725309496	77
0	37070	11599.057576148879	76
0	37074	11599.739463175334	77
0	37075	11600.690341489684	76
0	37080	11602.309429349672	75
0	37084	11602.796537253878	76
0	37085	11603.604388259646	75
0	37088	11604.973662813489	74
0	37091	11606.746984714937	73
0	37095	11607.612994597904	74
0	37097	11608.154462639726	75
0	37098	11608.471387923059	74
0	37101	11609.685853234229	73
0	37105	11609.800878902225	74
0	37107	11610.517878739963	75
0	37108	11611.493674363491	74
0	37111	11612.929729425643	73
0	37115	11613.265682877274	74
0	37116	11614.767934751246	73
0	37120	11614.95679126952	74
0	37121	11616.49707461625	73
0	37125	11617.340889366971	74
0	37127	11618.094299271894	75
0	37128	11618.110940840762	74
0	37131	11619.584930393021	73
0	37135	11619.789803645371	74
0	37137	11620.577652147205	75
0	37138	11621.437740815725	74
0	37141	11623.089028256494	73
0	37145	11623.393988715754	74
0	37147	11624.400415457087	75
0	37148	11624.891736058067	74
0	37152	11625.473105041361	75
0	37154	11625.635491549314	76
0	37155	11626.626599086556	75
0	37159	11626.701764332299	76
0	37160	11627.972511195871	75
0	37163	11629.272293941039	74
0	37166	11631.071868804205	73
0	37170	11631.703044796879	74
0	37172	11632.301779180965	75
0	37173	11632.320162468698	74
0	37177	11633.106267631994	75
0	37178	11633.600721103061	74
0	37182	11633.706222321739	75
0	37183	11635.53408317912	74
0	37186	11637.382956086207	73
0	37190	11638.270557594039	74
0	37191	11638.990230647024	73
0	37194	11640.550787515115	72
0	37197	11641.786906724345	71
0	37200	11643.385618158165	70
0	37204	11644.577108495194	71
0	37205	11644.912232566919	70
0	37209	11646.325093904465	71
0	37211	11646.88837767019	72
0	37212	11646.905134599577	71
0	37216	11647.263366376322	72
0	37218	11648.37881422805	73
0	37219	11648.722052872661	72
0	37223	11649.277057071925	73
0	37224	11650.25463091034	72
0	37228	11650.461570027804	73
0	37230	11651.088432776023	74
0	37231	11651.591500707451	73
0	37235	11652.113758112614	74
0	37236	11652.882652338143	73
0	37240	11654.672554618398	74
0	37241	11654.76743221778	73
0	37245	11655.611472163793	74
0	37246	11656.662670499008	73
0	37250	11658.090296533749	74
0	37251	11658.159384609308	73
0	37255	11659.155962587333	74
0	37256	11660.071072532903	73
0	37260	11661.426531977827	74
0	37261	11661.794364495124	73
0	37265	11662.166324175211	74
0	37266	11663.341463421206	73
0	37270	11664.482192531382	74
0	37272	11664.919867032542	75
0	37274	11664.934846684827	76
0	37275	11665.202558749835	75
0	37278	11667.133705195519	74
0	37282	11668.797193207979	75
0	37283	11668.983734957608	74
0	37287	11670.275763043507	75
0	37289	11670.438714832965	76
0	37290	11670.62997497275	75
0	37294	11671.220376606137	76
0	37296	11671.226628959729	77
0	37297	11671.899688045788	76
0	37301	11672.149820724257	77
0	37303	11672.874758333078	78
0	37304	11673.415219324748	77
0	37307	11674.9212872998	76
0	37311	11675.36040594798	77
0	37312	11676.767312568161	76
0	37315	11678.357001067247	75
0	37319	11678.807569619084	76
0	37321	11678.94288014422	77
0	37323	11679.079070694536	78
0	37324	11679.756915616352	77
0	37327	11681.708268430937	76
0	37331	11682.36125977081	77
0	37333	11682.710459555252	78
0	37334	11683.149458579827	77
0	37338	11683.510522063866	78
0	37339	11684.742756413963	77
0	37342	11686.018271446709	76
0	37345	11687.750387620289	75
0	37349	11687.790167801459	76
0	37350	11688.99261158343	75
0	37353	11690.956974115889	74
0	37357	11691.389652399059	75
0	37358	11692.764027786549	74
0	37361	11693.994960237961	73
0	37365	11694.504265250573	74
0	37367	11694.52296295566	75
0	37369	11695.048632181053	76
0	37371	11695.08762449132	77
0	37372	11695.264035331938	76
0	37376	11695.707806180139	77
0	37377	11696.49145096961	76
0	37381	11697.532931578792	77
0	37383	11697.994089455267	78
0	37384	11698.342985593821	77
0	37389	11700.236179209235	76
0	37393	11701.006014243259	77
0	37394	11701.536371035422	76
0	37398	11702.183321866991	77
0	37400	11702.941883489254	78
0	37401	11703.123622793811	77
0	37405	11703.877497051137	78
0	37406	11704.527643453623	77
0	37409	11706.108783057439	76
0	37413	11706.320938053863	77
0	37415	11706.439236242318	78
0	37416	11707.960752024422	77
0	37420	11708.232047768274	78
0	37421	11709.872379967677	77
0	37425	11711.066284991667	78
0	37427	11711.288445823244	79
0	37428	11711.551859792615	78
0	37432	11711.608444484512	79
0	37434	11712.010812754508	80
0	37435	11712.798384703803	79
0	37439	11714.08370372149	80
0	37440	11714.129791796501	79
0	37444	11714.219223809564	80
0	37446	11714.980303482348	81
0	37447	11716.039541153158	80
0	37451	11716.075424037093	81
0	37453	11716.975613493063	82
0	37454	11717.41135716896	81
0	37458	11718.275002108121	82
0	37460	11718.500487264966	83
0	37461	11718.623914368744	82
0	37464	11720.318815588686	81
0	37467	11721.637485949244	80
0	37471	11723.110903578455	81
0	37472	11723.179229926984	80
0	37475	11724.505841527241	79
0	37478	11725.891296901474	78
0	37482	11726.207790322745	79
0	37484	11726.284857798066	80
0	37486	11726.400020065141	81
0	37487	11727.859756356398	80
0	37491	11728.080001167084	81
0	37492	11729.380899152639	80
0	37496	11730.078010278032	81
0	37497	11730.620413272935	80
0	37501	11731.263198257582	81
0	37503	11732.078827375178	82
0	37504	11732.451811736184	81
0	37508	11733.550969681433	82
0	37509	11733.79037492584	81
0	37513	11734.180713948194	82
0	37514	11735.263795939382	81
0	37518	11736.812454792477	82
0	37520	11736.930523028849	83
0	37521	11737.07141296893	82
0	37524	11738.988056321737	81
0	37528	11739.533032320036	82
0	37529	11740.397125676383	81
0	37533	11741.466360247099	82
0	37535	11741.826460274244	83
0	37536	11742.100481361818	82
0	37539	11743.520706330162	81
0	37542	11745.194540860426	80
0	37545	11746.711176473197	79
0	37549	11748.209341202809	80
0	37550	11748.625964575183	79
0	37554	11749.321513693102	80
0	37556	11750.158293568756	81
0	37558	11750.175827966159	82
0	37559	11750.27814005084	81
0	37563	11750.286239432875	82
0	37565	11750.313941263186	83
0	37566	11751.944673095938	82
0	37570	11753.10457478456	83
0	37571	11753.652782930356	82
0	37574	11755.121674263027	81
0	37577	11756.578919762854	80
0	37581	11756.77574471102	81
0	37583	11757.686686933419	82
0	37584	11757.948956923482	81
0	37588	11759.205883972611	82
0	37590	11759.282340436362	83
0	37591	11759.672569659461	82
0	37595	11759.784279288909	83
0	37597	11760.723206091243	84
0	37599	11760.758955242435	85
0	37600	11761.286446221095	84
0	37604	11761.41048775348	85
0	37605	11762.813727694858	84
0	37609	11763.163435529444	85
0	37610	11764.224919154789	84
0	37614	11765.26239835057	85
0	37615	11765.541050521578	84
0	37618	11766.869598778631	83
0	37622	11766.979989737816	84
0	37624	11768.136575669001	85
0	37625	11768.471272816244	84
0	37629	11769.678334685526	85
0	37630	11770.055714593749	84
0	37633	11771.722989019114	83
0	37636	11773.170518110986	82
0	37639	11774.416410887907	81
0	37642	11776.287371966163	80
0	37645	11777.498380721653	79
0	37649	11778.440520070751	80
0	37650	11779.390149216833	79
0	37655	11781.113516875277	78
0	37659	11781.16324584843	79
0	37660	11782.526681034001	78
0	37664	11782.985931320185	79
0	37666	11784.033927902493	80
0	37667	11784.358138628783	79
0	37671	11784.702021190655	80
0	37673	11785.425744897768	81
0	37674	11786.236258994708	80
0	37677	11787.59465134527	79
0	37681	11788.06696990505	80
0	37682	11789.511601291145	79
0	37686	11789.821382113158	80
0	37688	11790.045953994638	81
0	37689	11791.22072688892	80
0	37693	11791.304001464626	81
0	37694	11792.541222697045	80
0	37697	11794.082146424535	79
0	37701	11794.202424048311	80
0	37702	11795.855787858102	79
0	37705	11797.427478549551	78
0	37709	11797.569725058354	79
0	37714	11799.333384170677	78
0	37718	11800.596881019918	79
0	37719	11801.329099748205	78
0	37722	11803.296585631664	77
0	37725	11805.08968897752	76
0	37728	11807.055152971591	75
0	37732	11808.112503785257	76
0	37734	11808.408178615004	77
0	37736	11808.679939613098	78
0	37737	11808.765476222257	77
0	37741	11810.218569562855	78
0	37742	11810.675698164026	77
0	37745	11812.291477776984	76
0	37749	11812.955359806286	77
0	37751	11813.767109339812	78
0	37752	11814.137126516098	77
0	37756	11814.639483492051	78
0	37758	11814.65250493132	79
0	37760	11815.208398071836	80
0	37761	11815.523217948818	79
0	37765	11815.768901045997	80
0	37767	11815.994519814364	81
0	37769	11816.558540502243	82
0	37770	11816.842175022618	81
0	37773	11818.059373802611	80
0	37776	11819.398734931567	79
0	37780	11819.672511838413	80
0	37782	11819.757282192902	81
0	37784	11820.65239004974	82
0	37785	11820.816528738954	81
0	37789	11821.999045443894	82
0	37790	11822.564382586547	81
0	37794	11822.575607020956	82
0	37795	11823.854216305644	81
0	37799	11824.201772677433	82
0	37800	11825.68667312722	81
0	37804	11825.924859730916	82
0	37806	11826.619375780436	83
0	37807	11827.156853932993	82
0	37811	11828.342558100707	83
0	37812	11828.507400943072	82
0	37816	11828.612619615195	83
0	37818	11830.067354298145	84
0	37819	11830.203004361422	83
0	37822	11832.023077332893	82
0	37826	11832.937493028588	83
0	37827	11833.893677766727	82
0	37831	11834.903875329082	83
0	37832	11835.584161389911	82
0	37835	11836.792720867799	81
0	37839	11837.379756553173	82
0	37840	11838.009316564271	81
0	37845	11839.79512441411	80
0	37849	11840.893853567072	81
0	37850	11841.641224369885	80
0	37854	11843.176893698862	81
0	37855	11843.310501910852	80
0	37858	11845.272542180972	79
0	37862	11845.341306021341	80
0	37863	11847.031382771129	79
0	37867	11847.422289975145	80
0	37868	11848.535514374184	79
0	37872	11848.621720666481	80
0	37874	11850.169916164064	81
0	37875	11850.280017900015	80
0	37879	11851.844644025221	81
0	37880	11852.218479666034	80
0	37884	11852.809138490343	81
0	37885	11853.641071967514	80
0	37888	11855.169268188359	79
0	37892	11855.206271519563	80
0	37894	11855.793505951292	81
0	37896	11856.10757898667	82
0	37897	11856.523897308962	81
0	37901	11858.036213441178	82
0	37902	11858.165160451935	81
0	37908	11859.097740864325	82
0	37909	11859.639339766571	81
0	37913	11859.641009754183	82
0	37914	11861.066338660674	81
0	37918	11861.588223847893	82
0	37919	11862.338498247521	81
0	37923	11863.832107950766	82
0	37924	11864.255945905404	81
0	37927	11865.912417136239	80
0	37930	11867.188432054887	79
0	37934	11867.366775637622	80
0	37936	11868.118990076503	81
0	37937	11868.568423956925	80
0	37941	11868.853656411729	81
0	37942	11869.852429885151	80
0	37945	11871.616945627811	79
0	37948	11872.900945307235	78
0	37951	11874.129638988818	77
0	37955	11874.28244924955	78
0	37957	11874.655317526879	79
0	37959	11875.771978740734	80
0	37960	11875.950702007408	79
0	37964	11876.493609964143	80
0	37965	11877.546378401029	79
0	37968	11879.201751925158	78
0	37971	11880.450505253779	77
0	37974	11882.031000615018	76
0	37977	11883.260237576174	75
0	37981	11883.629277336985	76
0	37983	11883.756350278425	77
0	37985	11883.998420633335	78
0	37986	11884.806717563713	77
0	37990	11884.830745560115	78
0	37992	11885.683353062568	79
0	37994	11886.166669090814	80
0	37996	11886.187820643786	81
0	37997	11886.319799957344	80
0	38001	11886.534917219036	81
0	38003	11886.553112102782	82
0	38005	11887.25333441723	83
0	38007	11887.509438302435	84
0	38008	11887.989327155159	83
0	38011	11889.323032866151	82
0	38015	11890.482305555634	83
0	38016	11891.112206041173	82
0	38020	11892.583738285587	83
0	38021	11892.725538503298	82
0	38025	11892.820326737222	83
0	38026	11894.101550451399	82
0	38030	11895.585965184648	83
0	38031	11895.667395944067	82
0	38035	11896.110454927454	83
0	38036	11896.940251397819	82
0	38040	11897.160991794002	83
0	38042	11897.885906192539	84
0	38044	11898.294698968036	85
0	38045	11898.294750379317	84
0	38049	11898.685648985799	85
0	38050	11899.590356197127	84
0	38054	11900.454398070558	85
0	38055	11901.544512574852	84
0	38058	11903.175041236461	83
0	38062	11903.369985102549	84
0	38064	11904.108884399703	85
0	38065	11904.987021862262	84
0	38068	11906.936284357601	83
0	38072	11907.828112226014	84
0	38073	11908.740824966797	83
0	38077	11909.34320736469	84
0	38078	11910.405402992213	83
0	38082	11910.641293483289	84
0	38084	11911.186152853749	85
0	38085	11912.320210550086	84
0	38089	11913.913177855121	85
0	38090	11914.249520254241	84
0	38093	11916.17964632261	83
0	38097	11916.714077870448	84
0	38099	11917.477820825406	85
0	38100	11917.578281509796	84
0	38104	11918.166307380838	85
0	38105	11919.260499452533	84
0	38108	11920.62061418231	83
0	38112	11920.995356847929	84
0	38114	11921.367642630201	85
0	38115	11922.395465465741	84
0	38118	11923.777980779031	83
0	38122	11925.023133679626	84
0	38123	11925.07646734632	83
0	38127	11925.452105838888	84
0	38129	11925.614965118387	85
0	38130	11926.526467663156	84
0	38134	11927.906954556498	85
0	38135	11927.942623703661	84
0	38138	11929.16588870875	83
0	38142	11930.286921927894	84
0	38144	11930.678168187783	85
0	38145	11930.966420092726	84
0	38149	11931.186271909925	85
0	38150	11932.490474343592	84
0	38154	11933.020831060728	85
0	38155	11933.878857864173	84
0	38159	11934.647906551822	85
0	38160	11935.326494023496	84
0	38164	11935.746822611069	85
0	38165	11936.921512880282	84
0	38171	11938.071150078456	85
0	38172	11938.448792602786	84
0	38176	11938.538594948486	85
0	38177	11940.020597161085	84
0	38181	11940.713334354376	85
0	38183	11940.942949524873	86
0	38184	11941.225487617508	85
0	38188	11941.285256881534	86
0	38190	11942.004801077653	87
0	38191	11942.886106377945	86
0	38194	11944.253384655074	85
0	38198	11944.361162080498	86
0	38200	11946.037755767148	87
0	38201	11946.22706257283	86
0	38205	11946.705302954018	87
0	38206	11947.774897904799	86
0	38209	11949.537113271572	85
0	38213	11950.227296384862	86
0	38214	11950.905399612069	85
0	38217	11952.260448247112	84
0	38221	11953.096523935486	85
0	38222	11953.825012725882	84
0	38226	11955.09349791381	85
0	38228	11955.471796639189	86
0	38229	11955.734913731284	85
0	38233	11956.743983512056	86
0	38235	11957.094126907313	87
0	38236	11957.316622021526	86
0	38240	11957.905755923841	87
0	38242	11958.309940488133	88
0	38243	11959.259872146428	87
0	38246	11961.05237337678	86
0	38250	11961.717571096729	87
0	38251	11963.017136482999	86
0	38255	11963.387101801659	87
0	38257	11963.891305916799	88
0	38258	11964.975719963677	87
0	38262	11964.988606509901	88
0	38263	11966.564855297386	87
0	38267	11967.171787442608	88
0	38268	11968.209432775072	87
0	38271	11969.915282584644	86
0	38274	11971.667911612905	85
0	38278	11971.810332852583	86
0	38280	11972.181114216798	87
0	38282	11972.395463901166	88
0	38284	11972.882164568931	89
0	38285	11972.991406797535	88
0	38289	11972.995375230551	89
0	38290	11974.972604851715	88
0	38294	11974.990238475487	89
0	38296	11975.163037205067	90
0	38297	11976.617153119027	89
0	38300	11978.224637140251	88
0	38304	11979.080341246519	89
0	38306	11979.256998135047	90
0	38307	11979.782720528274	89
0	38311	11980.417217030495	90
0	38312	11981.371007307909	89
0	38316	11981.537864919126	90
0	38317	11982.785253195568	89
0	38320	11984.07467607326	88
0	38323	11985.746700197562	87
0	38327	11986.12010913899	88
0	38329	11987.226051248481	89
0	38330	11987.641813045099	88
0	38334	11988.542638555364	89
0	38335	11989.503705786273	88
0	38339	11990.082939594572	89
0	38340	11990.748393759795	88
0	38343	11992.734784815751	87
0	38347	11994.045539685004	88
0	38348	11994.438620718859	87
0	38352	11994.640374128722	88
0	38353	11996.108342298224	87
0	38357	11997.346411307266	88
0	38359	11997.399505763584	89
0	38360	11997.415039608545	88
0	38364	11997.532491013003	89
0	38366	11997.652792461989	90
0	38368	11998.573825204941	91
0	38369	11999.084743957511	90
0	38372	12000.323037596709	89
0	38376	12000.615359907948	90
0	38378	12000.841412605262	91
0	38379	12001.662176095984	90
0	38382	12003.383715696178	89
0	38385	12005.168409586615	88
0	38389	12005.212875262284	89
0	38391	12005.901276774089	90
0	38392	12006.497084637462	89
0	38396	12007.217579990638	90
0	38397	12008.307796235672	89
0	38400	12010.073175969637	88
0	38403	12011.607997175409	87
0	38407	12012.449241360184	88
0	38409	12012.704727028972	89
0	38410	12012.824217072418	88
0	38413	12014.7282329104	87
0	38417	12015.353804506345	88
0	38418	12016.037568269586	87
0	38422	12016.481158283299	88
0	38423	12017.891659385999	87
0	38427	12018.142735947311	88
0	38428	12019.823946997811	87
0	38432	12020.544443276987	88
0	38433	12021.32741102456	87
0	38437	12021.569373420293	88
0	38438	12022.78075292847	87
0	38442	12024.476940326038	88
0	38443	12024.776875018988	87
0	38447	12024.822314448441	88
0	38449	12026.203058089652	89
0	38452	12026.626368720185	88
0	38456	12027.725934854414	89
0	38457	12028.624543803472	88
0	38460	12029.999579583209	87
0	38464	12030.523712247924	88
0	38466	12031.220440737664	89
0	38469	12031.879220860925	88
0	38473	12031.972217215697	89
0	38474	12033.670180674557	88
0	38478	12033.790875938814	89
0	38480	12035.126110219846	90
0	38481	12035.215746321258	89
0	38485	12035.727304472216	90
0	38486	12036.715142042105	89
0	38489	12038.303998374482	88
0	38493	12038.440641026753	89
0	38494	12040.076041457904	88
0	38498	12040.890138936018	89
0	38499	12041.276469307122	88
0	38502	12042.708084390042	87
0	38506	12043.341116979129	88
0	38508	12044.035076917096	89
0	38509	12044.208821663176	88
0	38513	12045.532704513469	89
0	38515	12045.849315687635	90
0	38516	12045.952462929962	89
0	38519	12047.16952550496	88
0	38523	12047.306283828309	89
0	38525	12047.493650470102	90
0	38526	12048.567023030212	89
0	38529	12050.540396851403	88
0	38533	12051.174385739117	89
0	38535	12051.177202714205	90
0	38536	12051.797104721246	89
0	38540	12051.815028561341	90
0	38541	12053.73605884212	89
0	38544	12055.357553294403	88
0	38547	12057.216521185552	87
0	38550	12059.190092833256	86
0	38554	12060.444681531515	87
0	38555	12060.583215459911	86
0	38558	12062.352347358418	85
0	38562	12062.736991529378	86
0	38564	12063.26465676705	87
0	38566	12063.319786386777	88
0	38567	12063.616818675873	87
0	38571	12063.881752168837	88
0	38572	12065.515285211903	87
0	38576	12066.583905913084	88
0	38578	12066.771266099037	89
0	38579	12067.056336561133	88
0	38583	12067.714917815823	89
0	38584	12068.601317229037	88
0	38588	12069.227087691997	89
0	38590	12070.015430923483	90
0	38591	12070.110083100487	89
0	38595	12070.165139728812	90
0	38596	12071.763972646658	89
0	38600	12071.868795010356	90
0	38602	12073.255652822388	91
0	38603	12073.658321105976	90
0	38607	12073.908865369383	91
0	38608	12075.029984578964	90
0	38611	12076.703893103738	89
0	38615	12077.28681668518	90
0	38617	12077.541850587802	91
0	38618	12078.130765339275	90
0	38622	12079.041854346	91
0	38623	12079.952213751626	90
0	38627	12080.312328373867	91
0	38628	12081.541407838938	90
[...]
6	33872	10591.98439883688	349
6	33884	10593.978580969542	350
6	33905	10600.453851287623	351
6	33951	10611.531263564853	352
6	34003	10628.168742972372	353
6	34295	10714.637015847663	354
6	34359	10734.900371525374	355
6	34379	10740.398520860567	356
6	34391	10742.597158495742	357
6	34406	10747.275567622348	358
6	34675	10832.546017720755	359
6	34815	10878.212395837121	360
6	34820	10878.779022218726	361
6	34916	10910.848418870585	362
6	35184	11000.343263928245	363
6	35364	11056.505196369862	364
6	35452	11083.133639278391	365
6	35460	11086.615036727171	366
6	35462	11086.848548260888	367
6	35523	11108.821550183989	368
6	35558	11120.064605800033	369
6	35752	11180.349679791017	370
6	35762	11182.35847470406	371
6	35836	11205.614255451861	372
6	35862	11212.002162182724	373
6	35903	11226.422479777379	374
6	35927	11232.617133351073	375
6	35984	11248.658679118581	376
6	35994	11252.563013756485	377
6	36185	11309.678654742824	378
6	36207	11317.130385674183	379
6	36239	11326.921589202094	380
6	36339	11361.857863788142	381
6	36379	11375.165381155131	382
6	36497	11410.336520900362	383
6	36535	11423.953597754099	384
6	36830	11521.591544256122	385
6	36931	11552.839352411111	386
6	37079	11600.972170880544	387
6	37388	11699.990131472217	388
6	37654	11779.7317469646	389
6	37711	11798.088582309935	390
6	37713	11799.223074963714	391
6	37844	11839.07566924216	392
6	37906	11858.951821281192	393
6	38169	11937.184103715064	394
6	38451	12026.402151040481	395
6	38468	12031.583955412823	396
6	38664	12091.395283437934	397
6	38857	12151.002544448445	398
6	38963	12184.854506827343	399
6	39108	12226.852570798096	400
6	39546	12365.905779017326	401
6	39606	12385.268956499316	402
6	39618	12387.093416833093	403
6	39646	12396.87424746409	404
6	39700	12409.841036781353	405
6	39750	12426.510871779962	406
6	39942	12483.778716382833	407
6	39979	12498.991812652799	408
6	40221	12570.637533510129	409
6	40406	12630.905739526181	410
6	40452	12647.660385369176	411
6	40567	12685.378890774262	412
6	40629	12707.038603882692	413
6	40657	12714.780842844057	414
6	40871	12782.633110021858	415
6	40908	12791.246330653467	416
6	40929	12796.648369821499	417
6	41144	12860.84457955523	418
6	41164	12865.980671236534	419
6	41329	12916.477560378592	420
6	41455	12953.664749427865	421
6	41468	12957.794233519299	422
6	41470	12958.009384325026	423
6	41564	12987.92531727004	424
6	41849	13075.336767833701	425
6	42169	13180.532803317598	426
6	42178	13183.239982434614	427
6	42230	13199.766560563627	428
6	42518	13287.497281429267	429
6	42608	13315.641144540827	430
6	42720	13351.212764152836	431
6	42944	13419.654743826359	432
6	42957	13422.81119430619	433
6	43007	13439.355917045448	434
6	43343	13546.160450134603	435
6	43363	13551.921207658277	436
6	43388	13559.927742757552	437
6	43598	13627.226815253198	438
6	43763	13675.796054839117	439
6	43770	13678.259368831372	440
6	44036	13762.520943843465	441
6	44042	13763.729647602608	442
6	44202	13812.611552462541	443
6	44265	13833.673468097339	444
6	44279	13837.039026960592	445
6	44428	13883.077881375788	446
6	44453	13890.438649139344	447
6	44536	13919.54198827163	448
6	44546	13922.489840183891	449
6	44711	13971.488344768995	450
6	44724	13977.13116959625	451
6	44733	13978.702913986785	452
6	44769	13991.377407900508	453
6	44792	13994.763400618051	454
6	44872	14022.320309957223	455
6	44909	14034.88243982996	456
6	44942	14045.952789133678	457
6	45018	14071.684870657317	458
6	45225	14137.980673011711	459
6	45245	14144.250772501787	460
6	45334	14169.998806262768	461
6	45343	14172.513266513504	462
6	45497	14222.189012640396	463
6	45535	14233.630705596704	464
6	45597	14254.526135383668	465
6	45717	14292.561830112389	466
6	45731	14295.753559062803	467
6	45905	14355.273858617221	468
6	46035	14396.540719259046	469
6	46168	14441.17240857182	470
6	46398	14512.181172992847	471
6	46416	14518.312920221335	472
6	46572	14570.450770457582	473
6	46579	14571.555739730941	474
6	46599	14577.717922712196	475
6	46681	14604.087485300727	476
6	46814	14647.484005080476	477
6	46844	14657.416829077792	478
6	46848	14657.841694455488	479
6	46865	14662.205519406038	480
6	46922	14679.815500453061	481
6	47021	14714.080804582488	482
6	47071	14730.562943986704	483
6	47317	14805.88459319304	484
6	47661	14914.280801876208	485
6	47683	14920.7752979713	486
6	47753	14943.010039385837	487
6	47804	14960.050131757715	488
6	47977	15013.79292845396	489
6	48055	15040.872185587954	490
6	48071	15043.912570702101	491
6	48132	15062.072312349894	492
6	48467	15165.739078996652	493
6	48485	15172.055856217572	494
6	48512	15180.338916862209	495
6	48621	15213.606451779481	496
6	48672	15228.265760758936	497
6	48815	15269.911708107826	498
6	48902	15292.332857786663	499
6	49021	15329.51716072295	500
6	49170	15376.533703743507	501
6	49205	15388.920964037659	502
6	49333	15430.159634457636	503
6	49580	15507.453956013407	504
6	49630	15522.979963998468	505
6	49875	15594.668499900121	506
6	49970	15625.467152051389	507
6	50023	15643.558517761881	508
6	50069	15659.24646854206	509
6	50112	15669.722579867778	510
6	50218	15700.859505877885	511
6	50260	15713.606705994607	512
6	50337	15737.103253463802	513
6	50348	15739.841503358628	514
6	50406	15760.001283118482	515
6	50781	15878.629938333296	516
6	50923	15920.285819371147	517
6	51028	15952.016520515656	518
6	51084	15968.09802636978	519
6	51105	15973.085160801431	520
6	51166	15988.916718945237	521
6	51549	16114.153554035722	522
6	51566	16119.60206235399	523
6	51610	16131.266018566775	524
6	51650	16144.271274931986	525
6	51664	16146.159169422366	526
6	51763	16176.93992771569	527
6	51851	16205.593128636205	528
6	51995	16249.615667484565	529
6	52012	16255.879216037638	530
6	52364	16365.788041168897	531
6	52393	16373.306606062228	532
6	52411	16380.603444480207	533
6	52476	16402.189416421104	534
6	52478	16402.331099930269	535
6	52671	16467.073027686192	536
6	52683	16469.608034813704	537
6	52753	16492.686911216394	538
6	53437	16701.254536305166	539
6	53492	16717.088580330654	540
6	53583	16743.688711759348	541
6	53618	16754.673894456668	542
6	53985	16869.702068502016	543
6	54177	16929.838582312102	544
6	54202	16938.719282766381	545
6	54255	16952.080384938657	546
6	54310	16970.395289656134	547
6	54372	16986.300367922735	548
6	54693	17088.959957475213	549
6	54847	17135.390091199881	550
6	54873	17144.717801028185	551
6	54931	17160.700446665642	552
6	55105	17221.604587077131	553
6	55146	17230.76966187173	554
6	55214	17256.152100061907	555
6	55325	17292.036306652982	556
6	55557	17362.294626582447	557
6	55616	17380.008937236114	558
6	55788	17436.884583407415	559
6	55906	17475.020263341656	560
6	55929	17480.727127285815	561
6	56008	17504.701273504893	562
6	56120	17536.525905406569	563
6	56162	17549.405183385611	564
6	56460	17648.249296539464	565
6	56694	17720.36263957301	566
6	56733	17730.164988649361	567
6	56776	17745.94185909158	568
6	56807	17754.911161099956	569
6	56831	17761.897691233689	570
6	56922	17788.327196398679	571
6	56932	17791.715780023894	572
6	57051	17829.966682864033	573
6	57088	17841.65680925217	574
6	57114	17849.768927098868	575
6	57200	17878.662731141189	576
6	57381	17935.109121886595	577
6	57408	17943.835121758586	578
6	57418	17946.508676660136	579
6	57530	17981.848790546105	580
6	57567	17992.870800728463	581
6	57618	18007.580810853577	582
6	57727	18041.205958758408	583
6	57800	18064.692779523254	584
6	57918	18101.859294499051	585
6	58018	18133.609494782905	586
6	58222	18200.253576466051	587
6	58287	18220.085252074635	588
6	58514	18296.468505941927	589
6	58898	18417.53236573628	590
6	59016	18451.340608792439	591
6	59042	18457.736613508156	592
6	59050	18459.772883951814	593
6	59177	18497.049537502955	594
6	59264	18527.200031607754	595
6	59332	18547.704233115834	596
6	59352	18553.074499986741	597
6	59382	18563.266767027749	598
6	59501	18601.64361524945	599
6	59525	18611.132835756668	600
6	59550	18619.027720855753	601
6	59617	18638.875515956139	602
6	59642	18645.880912835935	603
6	60004	18764.305979317757	604
6	60014	18767.498977937208	605
6	60080	18787.362470903357	606
6	60162	18816.003331996077	607
6	60197	18827.142514005993	608
6	60227	18834.290278153685	609
6	60232	18835.295410109141	610
6	60293	18854.247706953794	611
6	60482	18913.141189105958	612
6	60606	18951.591204372977	613
6	60756	19001.596553108576	614
6	60789	19013.132353945555	615
6	60915	19049.765453730667	616
6	60992	19072.574870520227	617
6	61017	19080.913740462159	618
6	61081	19104.621075211519	619
6	61219	19147.993789544437	620
6	61412	19211.320999861962	621
6	61416	19211.62127703188	622
6	61480	19230.855727204337	623
6	61520	19242.987985598031	624
6	61829	19345.245698656039	625
6	61853	19350.908453395924	626
6	61962	19379.78600279831	627
6	62087	19418.067462383421	628
6	62280	19478.004311714613	629
6	62331	19494.49421777109	630
6	62455	19533.154122225024	631
6	62641	19589.586926624843	632
6	62818	19644.698599756254	633
6	62929	19679.257570708612	634
6	62947	19685.640962340178	635
6	62972	19693.549231140498	636
6	63182	19758.020845258903	637
6	63184	19758.964594663396	638
6	63325	19802.79388435689	639
6	63438	19837.08906503311	640
6	63454	19841.598980489673	641
6	63494	19854.165164236731	642
6	63583	19885.645221631791	643
6	63628	19897.581292253044	644
6	63696	19920.460427297112	645
6	63798	19946.111176618075	646
6	63859	19964.086876946757	647
6	63987	20001.755665129608	648
6	63999	20004.386123572019	649
6	64118	20045.529725804945	650
6	64257	20088.355609883846	651
6	64334	20111.173809033787	652
6	64423	20139.673569220072	653
6	64811	20267.508215713868	654
6	65047	20343.806499578212	655
6	65138	20372.397890303658	656
6	65184	20387.81501851635	657
6	65266	20414.117408632429	658
6	65334	20433.665664756441	659
6	65522	20497.812228540606	660
6	65651	20539.011086222813	661
6	65808	20589.362064250221	662
6	65841	20598.859560838771	663
6	65867	20607.750904600499	664
6	65996	20643.312029810623	665
6	66049	20656.997825711062	666
6	66102	20675.27794311082	667
6	66227	20715.249911059504	668
6	66278	20728.949564049184	669
6	66315	20740.911733991619	670
6	66340	20747.707484036806	671
6	66355	20752.491066263726	672
6	66408	20766.797220123012	673
6	66416	20770.629270350506	674
6	66424	20773.306512111919	675
6	66682	20855.565763884376	676
6	66833	20900.998351946662	677
6	67229	21023.246206293807	678
6	67349	21061.086445235861	679
6	67354	21062.679036587541	680
6	67416	21084.513490611989	681
6	67457	21097.140701293953	682
6	67591	21138.131679068584	683
6	67640	21152.274605225335	684
6	67790	21202.926300392242	685
6	67907	21240.503113164494	686
6	68016	21276.110114138095	687
6	68033	21280.265108211937	688
6	68110	21301.564094560964	689
6	68300	21363.128745940166	690
6	68337	21374.712064576169	691
6	68477	21417.241235213046	692
6	68485	21421.153132069545	693
6	68522	21432.724313411639	694
6	68700	21484.301577597547	695
6	68726	21492.228574873937	696
6	68815	21517.260595452266	697
6	68817	21517.923519632292	698
6	68937	21555.856276190886	699
6	69036	21590.622444685887	700
6	69063	21598.196299721443	701
6	69102	21609.501879084937	702
6	69147	21623.529396140202	703
6	69182	21636.177179335403	704
6	69347	21683.99736132296	705
6	69766	21814.340692825205	706
6	69830	21833.375798148591	707
6	69889	21850.824436151581	708
6	69932	21865.383719744748	709
6	70166	21931.906696798886	710
6	70171	21933.195380827604	711
6	70217	21948.257420558418	712
6	70353	21989.812209783624	713
6	70393	22003.497409107923	714
6	70440	22017.167059794065	715
6	70477	22028.738070686671	716
6	70534	22045.330782652705	717
6	70546	22049.252510534944	718
6	70570	22055.656739019519	719
6	70656	22082.744869774273	720
6	70860	22137.742208801587	721
6	70867	22139.588672477675	722
6	71066	22204.81636482531	723
6	71120	22219.436684073667	724
6	71222	22254.399823349314	725
6	71236	22257.929734924552	726
6	71276	22270.267805839725	727
6	71425	22314.146858323709	728
6	71427	22315.037316960086	729
6	71517	22344.313106544464	730
6	71557	22355.067187391255	731
6	71677	22390.944753363516	732
6	71717	22402.958677112496	733
6	71879	22449.951126663092	734
6	71887	22452.790103492011	735
6	71913	22459.925679085192	736
6	72043	22500.919313191996	737
6	72137	22533.244997429254	738
6	72365	22609.807701553172	739
6	72484	22644.298902153931	740
6	72639	22693.322177898551	741
6	72698	22714.429896288856	742
6	72723	22721.829933780894	743
6	72729	22723.014878186729	744
6	72772	22737.352479177947	745
6	72810	22746.642500350811	746
6	72939	22784.040286409847	747
6	73036	22813.212176927674	748
6	73097	22830.527648002937	749
6	73104	22831.825966237525	750
6	73140	22842.506971304381	751
6	73228	22867.973569893694	752
6	73367	22911.834460245923	753
6	73492	22948.190870195816	754
6	73497	22950.304948739399	755
6	73632	22995.466441018976	756
6	73802	23043.887440399203	757
6	73906	23074.041060687485	758
6	73947	23089.702654608427	759
6	74285	23194.734113211772	760
6	74309	23204.517407300266	761
6	74337	23211.870413920747	762
6	74408	23235.266548632582	763
6	74489	23257.385281842975	764
6	74702	23323.983609634343	765
6	74711	23325.933034824991	766
6	74846	23366.75291714473	767
6	74861	23370.672227510503	768
6	74895	23384.436069231812	769
6	75006	23419.789195666038	770
6	75253	23497.074691384228	771
6	75255	23497.134751783917	772
6	75272	23502.639128460082	773
6	75352	23525.770403110147	774
6	75411	23541.994670879246	775
6	75416	23543.372865152	776
6	75458	23555.680343900443	777
6	75477	23559.219447102144	778
6	75562	23586.501841181774	779
6	75601	23596.655803873533	780
6	75603	23596.807024918356	781
6	75649	23613.54921188879	782
6	75716	23634.428505944102	783
6	75826	23669.152006759641	784
6	75831	23669.97801532053	785
6	75948	23708.456813801923	786
6	75983	23719.130600630877	787
6	76055	23743.162652264688	788
6	76075	23748.890668323949	789
6	76125	23762.085104479185	790
6	76407	23845.481629336861	791
6	76505	23880.262574508893	792
6	76566	23901.891885526416	793
6	76671	23930.974268227121	794
6	76765	23963.738392053497	795
6	76797	23973.344283821382	796
6	76836	23983.989747453343	797
6	76880	23996.513251210057	798
6	76927	24013.762750638525	799
6	77021	24042.927163192934	800
6	77032	24046.093448575699	801
6	77274	24123.292885004954	802
6	77338	24141.487722008176	803
6	77469	24183.937286328796	804
6	77471	24184.398843051697	805
6	77516	24198.754439373269	806
6	77523	24199.781141732893	807
6	77629	24229.064121604092	808
6	77685	24244.57435988918	809
6	77740	24261.634464794381	810
6	78001	24347.033940557589	811
6	78148	24392.081858984122	812
6	78158	24394.192240776366	813
6	78232	24419.605231267856	814
6	78281	24434.165002295153	815
6	78371	24462.606423415798	816
6	78527	24508.940631352796	817
6	78550	24514.051072665435	818
6	78564	24517.293417650161	819
6	78629	24539.237918528083	820
6	78813	24599.009639388335	821
6	78918	24629.175849678267	822
6	78954	24638.251502339784	823
6	79022	24657.24950733973	824
6	79255	24724.970857004616	825
6	79286	24735.567269730939	826
6	79335	24750.05771140236	827
6	79366	24757.278654127203	828
6	79391	24765.504341499659	829
6	79427	24775.744631321931	830
6	79440	24779.698867819587	831
6	79612	24833.616962674674	832
6	79641	24841.140589105405	833
6	79643	24841.221951865663	834
6	79671	24848.061636382999	835
6	79740	24872.866817407289	836
6	79759	24877.786675704037	837
6	79977	24944.802781478123	838
6	80002	24951.364844128693	839
6	80004	24951.856158946048	840
6	80047	24963.507128223173	841
6	80130	24989.292039425729	842
6	80270	25031.916988097446	843
6	80309	25043.705565688453	844
6	80323	25050.004878804697	845
6	80337	25053.923398682283	846
6	80447	25085.835697640215	847
6	80635	25148.251098164133	848
6	80656	25157.522609306719	849
6	81037	25276.358351116393	850
6	81054	25280.183084372496	851
6	81072	25286.369393996807	852
6	81077	25288.046918318764	853
6	81166	25311.889586190264	854
6	81217	25329.706687730636	855
6	81398	25384.447605144656	856
6	81406	25386.372745098464	857
6	81543	25432.751775236776	858
6	81568	25440.130601241763	859
6	81750	25497.595120904197	860
6	81774	25504.876887749488	861
6	81796	25512.09956215906	862
6	81914	25548.623881366162	863
6	81964	25564.469208803345	864
6	82219	25644.13213032442	865
6	82262	25657.785157214787	866
6	82312	25674.43172016314	867
6	82376	25694.067667825448	868
6	82609	25768.338283216239	869
6	82751	25813.274211204343	870
6	82907	25861.20311594703	871
6	83092	25920.110960663258	872
6	83112	25927.290112490861	873
6	83379	26012.058424042871	874
6	83596	26083.119782921258	875
6	83674	26106.550779458369	876
6	83696	26113.794270198554	877
6	83703	26114.790167415473	878
6	83796	26146.252311224946	879
6	83832	26159.631376804763	880
6	83862	26168.331428189415	881
6	83904	26180.934521646613	882
6	83906	26181.315366683387	883
6	83914	26184.314305999432	884
6	83923	26185.906110302761	885
6	84007	26210.157590250351	886
6	84061	26227.291173627087	887
6	84216	26276.362719944351	888
6	84247	26284.31943096492	889
6	84328	26307.125718421512	890
6	84339	26308.381906957509	891
6	84463	26350.706698475938	892
6	84486	26356.985311319595	893
6	84525	26367.964455494918	894
6	84554	26379.639702084577	895
6	84690	26424.270784469052	896
6	84722	26432.526187409836	897
6	84784	26452.667921545537	898
6	84813	26463.725355397186	899
6	84910	26494.336127782838	900
6	85114	26564.182703159324	901
6	85273	26613.353516354202	902
6	85416	26658.447126608741	903
6	85487	26684.296640240804	904
6	85599	26719.106141148069	905
6	85627	26729.142587961737	906
6	85765	26772.162828434792	907
6	85853	26797.704125624246	908
6	85953	26830.048615509201	909
6	86071	26864.374337049924	910
6	86147	26888.565459815087	911
6	86177	26898.848437596542	912
6	86317	26940.890784881606	913
6	86526	27005.717495935601	914
6	86558	27015.49099055419	915
6	86591	27025.602811850743	916
6	86601	27029.376042386308	917
6	86753	27073.370096304841	918
6	86830	27097.831438539817	919
6	87101	27184.03588785171	920
6	87135	27195.761773609743	921
6	87169	27206.610632248962	922
6	87245	27228.606902536717	923
6	87247	27229.106724764579	924
6	87254	27230.832620218485	925
6	87321	27254.025628140099	926
6	87741	27383.553614182981	927
6	87953	27452.435112897709	928
6	88019	27474.880476966086	929
6	88149	27519.721642655946	930
6	88151	27519.996362098343	931
6	88167	27522.790135596183	932
6	88319	27572.172666009857	933
6	88353	27582.516040796499	934
6	88385	27594.096548767835	935
6	88419	27605.677749377131	936
6	88521	27638.269928614791	937
6	88652	27680.052193121651	938
6	88905	27755.289348312404	939
6	88921	27760.934033765649	940
6	88966	27773.242876547252	941
6	89050	27800.119694064339	942
6	89052	27801.695741168306	943
6	89089	27812.355158054777	944
6	89291	27873.095463242103	945
6	89383	27895.888572756835	946
6	89524	27937.997635404249	947
6	89562	27951.006405764747	948
6	89894	28050.002467649729	949
6	89931	28062.032966158361	950
6	90076	28107.632407617875	951
6	90093	28112.239655517466	952
6	90273	28165.810126621496	953
6	90413	28207.498481027057	954
6	90455	28219.871127342736	955
6	90566	28251.533661586006	956
6	90571	28253.164759989827	957
6	90852	28336.248594829584	958
6	90925	28357.676315303982	959
6	91657	28592.803664485048	960
6	91766	28626.924673041336	961
6	91780	28633.211493422189	962
6	91948	28684.339824538689	963
6	92068	28716.222284795139	964
6	92440	28831.715411989063	965
6	92579	28875.048060876313	966
6	92651	28899.807343831082	967
6	92708	28916.862658969537	968
6	92842	28961.776110388622	969
6	93042	29024.755793888781	970
6	93084	29037.841221647411	971
6	93103	29043.052625715642	972
6	93451	29148.202163611852	973
6	93585	29191.569273563051	974
6	93615	29200.225890690513	975
6	93779	29254.266887417201	976
6	93877	29283.914982529505	977
6	94210	29389.867663118628	978
6	94295	29417.834133994868	979
6	94377	29443.435600936902	980
6	94439	29462.600588806297	981
6	94579	29507.6676314091	982
6	94628	29521.905272630137	983
6	94843	29592.416385445913	984
6	94886	29602.365962534955	985
6	94946	29619.421623758889	986
6	95136	29682.46689516767	987
6	95209	29705.597521098115	988
6	95327	29736.944784274495	989
6	95424	29767.372345057933	990
6	95477	29785.421867727953	991
6	95682	29849.778491358798	992
6	95954	29931.099649083938	993
6	96014	29949.00348102193	994

