version 2
run Third_exit_2-9-20191017-13:44:13-1998
attr configname Third_exit_2
attr datetime 20191017-13:44:13
attr experiment Third_exit_2
attr inifile omnetpp.ini
attr iterationvars ""
attr iterationvarsf ""
attr measurement ""
attr network ResponseTimeNetwork
attr processid 1998
attr repetition 9
attr replication #9
attr resultdir results
attr runnumber 9
attr seedset 9
param **.Source.interArrivalTime exponential(6s)
param **.jobPriority bernoulli(0.8)
param **.PS.serviceTimeU1 "uniform(1.2s, 2.0s)"
param **.PS.serviceTimeU2 "uniform(2.4s, 2.8s)"
param **.SS1.serviceTime exponential(1.4s)
param **.SS2.serviceTime exponential(2s)
param **.PS.exitProbability bernoulli(0.2)

vector 0 ResponseTimeNetwork.SS1 queueLength:vector ETV
attr interpolationmode sample-hold
attr title "queue length, vector"
vector 1 ResponseTimeNetwork.SS2 queueLength:vector ETV
attr interpolationmode sample-hold
attr title "queue length, vector"
vector 2 ResponseTimeNetwork.QueueU1 queueLength:vector ETV
attr interpolationmode sample-hold
attr title "queue length, vector"
vector 3 ResponseTimeNetwork.QueueU2 queueLength:vector ETV
attr interpolationmode sample-hold
attr title "queue length, vector"
vector 4 ResponseTimeNetwork.sink lifeTimeU1:vector ETV
attr interpolationmode none
attr title "lifetime of arrived jobs U1, vector"
attr unit s
vector 5 ResponseTimeNetwork.sink lifeTime:vector ETV
attr interpolationmode none
attr title "lifetime of arrived jobs, vector"
attr unit s
vector 6 ResponseTimeNetwork.sink lifeTimeU2:vector ETV
attr interpolationmode none
attr title "lifetime of arrived jobs U2, vector"
attr unit s
0	0	0	0
0	270	249.436197425564	1
0	271	251.426613338166	0
0	2920	2685.031914735831	1
0	2929	2687.429119245972	0
0	4535	4113.75201694746	1
0	4536	4114.122654408484	0
0	4605	4188.833069128811	1
0	4606	4189.17242413845	0
0	4610	4191.122944634707	1
0	4611	4191.508815274025	0
0	4875	4480.427281927748	1
0	4876	4480.497901774731	0
0	5922	5454.814671976891	1
0	5926	5456.797668279162	0
0	5932	5458.688486523381	1
0	5936	5462.554303627799	0
0	7200	6567.82648961671	1
0	7201	6569.274635607339	0
0	7495	6908.747601013201	1
0	7496	6911.75036364066	0
0	7600	7005.658495760161	1
0	7601	7006.348474280446	0
0	8737	8022.846681066944	1
0	8739	8024.021002506719	0
0	12552	11529.949280816668	1
0	12554	11531.083191521153	0
0	14010	12962.256292839766	1
0	14011	12962.665552391942	0
0	14254	13160.818742270972	1
0	14256	13161.071272569945	0
0	14259	13162.656425883639	1
0	14264	13164.082452957909	2
0	14268	13165.081007834352	1
0	14270	13165.092139843648	0
0	16610	15522.626372660707	1
0	16611	15524.045094632177	0
0	16657	15542.171126499891	1
0	16659	15542.410657376422	0
0	16969	15765.482666261791	1
0	16974	15768.392864859293	0
0	16977	15769.270700701437	1
0	16979	15769.640677228313	0
0	16995	15775.021220907866	1
0	16996	15776.16760870607	0
0	17275	16005.457006704434	1
0	17276	16007.923581874314	0
0	21882	20938.404682730181	1
0	21884	20938.748727882401	0
0	22430	21452.515519735433	1
0	22431	21452.642658727817	0
0	22725	21671.848150058694	1
0	22726	21672.315884039902	0
0	23345	22193.862311889442	1
0	23346	22194.884706409655	0
0	23737	22498.197616793412	1
0	23744	22502.017612335475	0
0	26162	25015.25470481267	1
0	26164	25015.868739554885	0
0	26515	25361.27659091239	1
0	26516	25361.327631140984	0
0	28952	27742.929014985313	1
0	28954	27743.2534043666	0
0	30040	28702.109001568587	1
0	30041	28702.795797150581	0
0	30237	28886.864850159232	1
0	30244	28889.554092957438	0
0	31050	29662.100330574378	1
0	31051	29663.274551497611	0
0	31397	29981.499398569835	1
0	31399	29981.653598338562	0
0	31437	29994.221394905707	1
0	31441	29997.24817856039	0
1	0	0	0
1	21719	20770.130295696828	1
1	21721	20771.276330673723	0
2	0	0	0
2	10	2.827691401855	1
2	13	4.235240692805	0
2	17	5.227066662438	1
2	18	5.545262148391	0
2	22	6.250851106321	1
2	24	6.937987681788	2
2	25	7.021661062512	1
2	28	8.924508328709	0
2	35	11.033065400858	1
2	36	12.116278251606	0
2	110	131.144103226536	1
2	111	132.484271233878	0
2	135	155.52125533873	1
2	137	155.784036780117	2
2	139	156.902839424729	3
2	140	156.997423182526	2
2	143	158.228279918717	1
2	147	158.871596178338	2
2	148	159.563905052008	1
2	152	159.812349961509	2
2	154	160.515124616373	3
2	155	160.866590068402	2
2	160	162.575048332947	1
2	163	164.058445473115	0
2	170	165.386958494097	1
2	171	167.1096402078	0
2	200	188.19848652046	1
2	201	189.516165786336	0
2	220	212.295358202327	1
2	221	212.743135328422	0
2	240	238.253867653842	1
2	242	238.496483375784	2
2	243	239.190971602453	1
2	247	240.47949988217	2
2	248	240.783452840289	1
2	252	241.449245566825	2
2	254	241.631222340586	3
2	255	242.01382821775	2
2	258	243.846882802387	1
2	261	245.653311624331	0
2	265	246.079166057517	1
2	266	247.502443259535	0
2	275	252.446782063212	1
2	279	253.35682482576	2
2	280	253.41104783962	1
2	284	254.073196867701	2
2	285	255.196206435249	1
2	288	257.004513877504	0
2	295	258.812133174201	1
2	296	260.632366528049	0
2	320	287.561651520372	1
2	321	289.319454439546	0
2	355	346.968364595271	1
2	356	347.414809857703	0
2	360	347.798194843022	1
2	361	348.671404162816	0
2	375	378.678360542497	1
2	377	380.362357365375	2
2	378	380.458495330281	1
2	381	381.776855166844	0
2	395	388.164101187958	1
2	396	389.505159479075	0
2	435	455.180539737024	1
2	436	455.741434389598	0
2	440	456.547268559562	1
2	441	457.226481972507	0
2	445	457.29163191818	1
2	446	459.014782838023	0
2	450	460.844822031671	1
2	451	460.978731989733	0
2	475	489.822782941066	1
2	476	490.320310637493	0
2	485	500.355751516833	1
2	487	500.627122637796	2
2	488	500.932842933667	1
2	491	502.241706696992	0
2	545	568.273258266177	1
2	546	569.535558391148	0
2	550	569.976349105748	1
2	553	571.387258078689	0
2	557	571.670404426743	1
2	558	573.324621609943	0
2	565	575.146577231126	1
2	567	575.641006998195	2
2	569	575.840635397866	3
2	570	576.812233188161	2
2	575	578.282860539266	1
2	578	580.047424943903	0
2	585	582.990205940187	1
2	586	583.193658786611	0
2	605	597.811136806967	1
2	608	599.048695121057	0
2	622	607.497852840483	1
2	623	607.565086092398	0
2	630	609.407391835241	1
2	633	610.133405769028	0
2	665	657.878908464372	1
2	666	658.669363481004	0
2	670	659.33398848533	1
2	672	660.12060178443	2
2	673	660.465549967077	1
2	676	661.667943542835	0
2	690	669.610382050668	1
2	691	671.138096298069	0
2	695	671.302363165482	1
2	696	672.553801531136	0
2	750	750.843215096127	1
2	751	752.094155056993	0
2	755	752.400828718402	1
2	756	753.954542534831	0
2	760	754.626043684697	1
2	761	755.499257204528	0
2	795	793.178380112933	1
2	796	793.446869361567	0
2	845	850.876090838885	1
2	846	851.869373916507	0
2	865	873.398368401767	1
2	867	873.989105403573	2
2	868	874.272252953375	1
2	873	875.862815731528	0
2	887	881.229131937166	1
2	888	881.53210498178	0
2	897	884.094376021403	1
2	898	884.610897944399	0
2	912	887.89775011291	1
2	913	889.13850690508	0
2	940	909.51546502122	1
2	941	911.142756976731	0
2	975	944.965095478437	1
2	976	945.293211161058	0
2	980	946.593019746139	1
2	981	946.9885290482	0
2	1005	968.983695495352	1
2	1006	970.624249156385	0
2	1020	976.505647093356	1
2	1021	976.61705441917	0
2	1025	978.425299851508	1
2	1026	978.574220326493	0
2	1045	987.668725040511	1
2	1046	987.790225778302	0
2	1060	995.445984774479	1
2	1061	997.076514005615	0
2	1075	1013.845685310983	1
2	1076	1014.444751673205	0
2	1090	1021.658594295872	1
2	1091	1023.428604836749	0
2	1150	1085.005245638388	1
2	1151	1086.907444779039	0
2	1155	1088.126565125868	1
2	1156	1088.268168812268	0
2	1165	1091.974527937569	1
2	1166	1093.432364563554	0
2	1170	1094.265224642183	1
2	1171	1094.916814829319	0
2	1195	1104.920364396974	1
2	1197	1106.401611510406	2
2	1198	1106.534238058728	1
2	1201	1108.4928709131	0
2	1230	1147.073705622079	1
2	1232	1147.558324923782	2
2	1233	1148.542228275408	1
2	1236	1150.368064015043	0
2	1245	1156.05983006489	1
2	1246	1157.063049751109	0
2	1260	1164.069048770274	1
2	1261	1164.514928895485	0
2	1265	1164.552029167123	1
2	1266	1166.058385699865	0
2	1275	1173.319605607382	1
2	1277	1174.047113473454	2
2	1278	1174.163107777835	1
2	1281	1175.942700554506	0
2	1295	1182.30986513126	1
2	1296	1182.857459688997	0
2	1305	1202.739591080581	1
2	1306	1203.509320824725	0
2	1350	1238.52424655432	1
2	1351	1239.975895343269	0
2	1360	1242.842815857776	1
2	1361	1243.437835611472	0
2	1365	1243.449654851579	1
2	1367	1244.255882689987	2
2	1368	1244.881706669809	1
2	1371	1246.330848673241	0
2	1395	1266.627390056674	1
2	1397	1267.651404389222	2
2	1398	1268.161647845292	1
2	1401	1269.997234645346	0
2	1425	1294.877086563138	1
2	1426	1296.825465799544	0
2	1440	1303.468666812237	1
2	1441	1304.39605577228	0
2	1445	1305.326020118451	1
2	1447	1305.668495709445	2
2	1450	1306.127657183198	1
2	1455	1307.382987342154	0
2	1462	1309.492457231382	1
2	1463	1310.179834701617	0
2	1480	1319.954720419488	1
2	1481	1320.574851333912	0
2	1490	1323.698501979472	1
2	1491	1325.240457868371	0
2	1505	1329.921942225494	1
2	1506	1329.993104222727	0
2	1525	1347.283917948253	1
2	1526	1347.950486617682	0
2	1530	1348.489777649618	1
2	1531	1349.658933051077	0
2	1535	1350.766024995921	1
2	1536	1350.963870694449	0
2	1540	1351.087957431243	1
2	1541	1352.637617814874	0
2	1565	1381.450113128219	1
2	1566	1381.954349416578	0
2	1600	1407.067586451844	1
2	1601	1407.424130359275	0
2	1635	1434.432577170925	1
2	1636	1435.263572255614	0
2	1640	1436.67974612388	1
2	1641	1437.033208082336	0
2	1647	1437.453717277007	1
2	1649	1437.899103801577	2
2	1650	1438.248828653525	1
2	1653	1440.16177510051	0
2	1665	1443.02968106132	1
2	1666	1444.55973701505	0
2	1675	1448.384990935863	1
2	1676	1449.844697859158	0
2	1705	1485.789710116855	1
2	1706	1486.861913226598	0
2	1710	1487.659657170671	1
2	1711	1488.108818508179	0
2	1745	1534.297872163211	1
2	1746	1534.574740779066	0
2	1760	1539.928899929939	1
2	1761	1540.207357527909	0
2	1795	1563.1528031766	1
2	1796	1564.057894275055	0
2	1800	1564.278806536054	1
2	1802	1564.880161694516	2
2	1805	1565.300237331816	1
2	1809	1565.356744196759	2
2	1810	1566.858069064745	1
2	1813	1568.565233234965	0
2	1817	1570.012052132685	1
2	1818	1570.447843535521	0
2	1840	1578.776945793955	1
2	1841	1579.221629463487	0
2	1910	1663.409573120791	1
2	1911	1664.871345739471	0
2	1945	1699.748774987437	1
2	1946	1700.25732565871	0
2	1955	1704.594607390148	1
2	1956	1705.581821515283	0
2	1965	1707.402907953866	1
2	1966	1708.683040286845	0
2	2040	1838.146645636248	1
2	2043	1839.663980830273	0
2	2070	1858.326539343486	1
2	2071	1859.650371180972	0
2	2085	1866.759916911739	1
2	2086	1868.236749021032	0
2	2115	1887.56685875503	1
2	2116	1889.311537809194	0
2	2130	1905.981793541305	1
2	2131	1907.214205414811	0
2	2150	1926.596493323904	1
2	2151	1926.72498452023	0
2	2155	1928.025123677468	1
2	2156	1928.507435108464	0
2	2170	1940.192935479866	1
2	2171	1940.629433770088	0
2	2180	1944.629245705955	1
2	2181	1944.825150091742	0
2	2205	1963.458420949272	1
2	2206	1964.330318826006	0
2	2240	2002.074682802257	1
2	2241	2003.446792136332	0
2	2285	2029.501138139315	1
2	2286	2030.084208410228	0
2	2340	2136.503152146036	1
2	2341	2138.062758019552	0
2	2345	2139.680095255472	1
2	2346	2139.738630779073	0
2	2355	2156.44524051777	1
2	2356	2156.976851961114	0
2	2415	2231.60531588868	1
2	2416	2233.126640976402	0
2	2460	2286.394351711405	1
2	2461	2287.683357083135	0
2	2475	2293.675045498108	1
2	2476	2294.895455062088	0
2	2485	2307.316277733493	1
2	2486	2307.365549277317	0
2	2535	2346.73194960948	1
2	2537	2347.362821213505	2
2	2538	2347.87066482365	1
2	2542	2348.19336129009	2
2	2543	2349.767563128321	1
2	2546	2351.463387891872	0
2	2550	2352.555160808604	1
2	2551	2353.096833261324	0
2	2555	2353.372097153588	1
2	2556	2354.941494409962	0
2	2560	2355.90329921187	1
2	2561	2356.325532767026	0
2	2610	2412.598478648209	1
2	2611	2413.442257409468	0
2	2625	2420.843930407231	1
2	2626	2421.362932897158	0
2	2670	2469.135140714762	1
2	2671	2471.010989663026	0
2	2675	2471.467539300874	1
2	2676	2472.243752520553	0
2	2685	2476.780367288528	1
2	2686	2477.463521470485	0
2	2700	2486.148791196719	1
2	2701	2486.531396427838	0
2	2735	2508.170564597429	1
2	2737	2508.214701955595	2
2	2738	2510.037831983532	1
2	2742	2510.234217502921	2
2	2744	2511.558514530536	3
2	2747	2511.964020558636	2
2	2750	2513.717445478219	1
2	2753	2515.077046380195	0
2	2757	2515.651009381253	1
2	2758	2516.65174356513	0
2	2770	2521.433219513789	1
2	2771	2522.094561228995	0
2	2785	2533.058517108476	1
2	2786	2533.703664251493	0
2	2820	2606.274453635313	1
2	2821	2607.191648323939	0
2	2825	2607.382831717686	1
2	2826	2608.558723195934	0
2	2830	2608.574846162774	1
2	2831	2610.176106211835	0
2	2835	2610.437583328188	1
2	2836	2611.466432858923	0
2	2850	2624.439860318063	1
2	2851	2625.359772682998	0
2	2865	2647.953218510136	1
2	2866	2648.30279141258	0
2	2910	2681.186621842141	1
2	2911	2682.115856340028	0
2	2915	2683.097728374309	1
2	2916	2683.787270680129	0
2	2925	2686.888454422391	1
2	2926	2687.348593088805	0
2	2930	2687.429119245972	1
2	2934	2689.142044751101	2
2	2935	2689.329383377738	1
2	2939	2689.562540823748	2
2	2940	2691.231997349865	1
2	2943	2692.535142761103	0
2	2947	2693.515794305391	1
2	2948	2693.845327203914	0
2	2955	2695.859863563105	1
2	2956	2697.349408396527	0
2	3022	2820.397070483276	1
2	3023	2820.525666179868	0
2	3090	2926.885753166896	1
2	3091	2927.076200257031	0
2	3155	2982.798719075954	1
2	3156	2983.564850923406	0
2	3170	2987.399766079312	1
2	3171	2988.928310749974	0
2	3180	2991.887499242252	1
2	3181	2993.137395670112	0
2	3230	3020.646929395182	1
2	3231	3021.477482873193	0
2	3247	3035.397905805959	1
2	3248	3035.514504440434	0
2	3252	3035.638682639721	1
2	3253	3037.256907695651	0
2	3310	3111.197997698893	1
2	3311	3112.383335759652	0
2	3320	3119.979840415025	1
2	3324	3120.140763024503	2
2	3326	3120.782165810719	3
2	3327	3120.811661430304	2
2	3330	3122.492416176056	1
2	3334	3123.634802481191	2
2	3335	3124.388199994383	1
2	3338	3125.728188714241	0
2	3360	3140.293864731399	1
2	3361	3140.557953209939	0
2	3365	3141.661020236856	1
2	3366	3141.958536514404	0
2	3385	3167.603271626667	1
2	3386	3168.341862474286	0
2	3390	3169.05268821482	1
2	3391	3169.773966644422	0
2	3395	3170.941657767884	1
2	3396	3171.070415017844	0
2	3402	3171.503410186376	1
2	3405	3172.57434394499	0
2	3412	3174.646572321255	1
2	3413	3175.634775128865	0
2	3440	3202.063342015997	1
2	3441	3202.214731408609	0
2	3455	3208.825163346072	1
2	3456	3209.077338693445	0
2	3460	3209.260060287389	1
2	3462	3210.613085828493	2
2	3463	3210.617623350737	1
2	3466	3212.539475494218	0
2	3490	3238.904435759966	1
2	3491	3239.604603908316	0
2	3525	3274.146653192591	1
2	3526	3274.907106637571	0
2	3560	3294.443673619783	1
2	3561	3294.459973214135	0
2	3575	3301.397949204775	1
2	3576	3302.570504308728	0
2	3600	3323.348710449377	1
2	3601	3323.918778746168	0
2	3612	3331.694394071061	1
2	3613	3332.046859888302	0
2	3635	3340.184842641622	1
2	3636	3340.985478181954	0
2	3640	3341.215621277119	1
2	3643	3342.766950883347	0
2	3650	3344.88806477798	1
2	3652	3344.889282619555	2
2	3653	3346.367323564741	1
2	3656	3348.305948008414	0
2	3690	3390.446410767006	1
2	3691	3391.101364464355	0
2	3760	3453.524803606295	1
2	3761	3454.455243365295	0
2	3765	3456.245010496714	1
2	3766	3456.426945884913	0
2	3845	3521.248741850547	1
2	3846	3521.581313441801	0
2	3860	3549.365648049956	1
2	3861	3550.154865119445	0
2	3870	3554.214220822196	1
2	3871	3554.683508538885	0
2	3900	3582.592453427091	1
2	3901	3584.214909759106	0
2	3905	3584.648997219142	1
2	3908	3585.788478401059	0
2	3915	3587.715687533966	1
2	3916	3588.619550673606	0
2	3960	3638.080461221042	1
2	3961	3639.462817965585	0
2	3985	3666.180845962375	1
2	3986	3667.884641529713	0
2	4007	3679.025749379928	1
2	4008	3680.143890912325	0
2	4025	3689.110529136723	1
2	4026	3689.314442531111	0
2	4145	3809.340939394616	1
2	4146	3810.723992487117	0
2	4187	3858.565676291102	1
2	4188	3858.968703363998	0
2	4195	3861.238365338291	1
2	4197	3861.700153584682	2
2	4198	3861.78255777636	1
2	4201	3863.586949241137	0
2	4290	3952.80522246348	1
2	4291	3954.137890578791	0
2	4295	3954.517414582244	1
2	4296	3955.351743764974	0
2	4300	3956.057374184748	1
2	4301	3956.862467736922	0
2	4305	3956.973985452581	1
2	4306	3958.638823968716	0
2	4335	3988.317240561014	1
2	4338	3988.776365380573	0
2	4345	3990.892202257813	1
2	4346	3992.067196042302	0
2	4350	3992.704745620107	1
2	4352	3992.802024479597	2
2	4353	3993.681851360786	1
2	4356	3995.059161179911	0
2	4375	4009.405179114221	1
2	4376	4010.162073681723	0
2	4380	4010.890203673496	1
2	4381	4011.487358702939	0
2	4390	4014.330938404963	1
2	4391	4014.999433826395	0
2	4400	4018.540792767788	1
2	4401	4018.828451784231	0
2	4430	4043.332688136274	1
2	4431	4044.165972430048	0
2	4435	4044.509048687393	1
2	4436	4045.835167937142	0
2	4440	4046.042155137076	1
2	4442	4047.195333974368	2
2	4443	4047.195871419248	1
2	4446	4048.949498380323	0
2	4470	4066.534432533593	1
2	4471	4067.619390999709	0
2	4495	4099.079089588846	1
2	4496	4099.227347752019	0
2	4500	4099.883655607889	1
2	4501	4100.697962164818	0
2	4510	4104.894551713111	1
2	4512	4105.740476971474	2
2	4513	4105.809519171942	1
2	4517	4106.607244634747	2
2	4519	4107.704390778878	3
2	4520	4107.727367639955	2
2	4523	4109.53529788949	1
2	4526	4110.926348748472	0
2	4530	4112.260953429498	1
2	4531	4112.472688134242	0
2	4540	4115.144086514048	1
2	4541	4115.673717696301	0
2	4565	4132.103321950492	1
2	4566	4132.696482466248	0
2	4590	4180.924833065541	1
2	4591	4181.355007302449	0
2	4615	4192.238317495345	1
2	4616	4192.87447204535	0
2	4635	4218.377396889814	1
2	4636	4218.746259921815	0
2	4645	4237.197992879651	1
2	4646	4237.408314017031	0
2	4655	4249.006995611371	1
2	4656	4249.607944657926	0
2	4675	4290.723681753372	1
2	4676	4292.231588508661	0
2	4745	4344.914894186293	1
2	4746	4345.029487479044	0
2	4765	4363.953942250418	1
2	4766	4364.032611158793	0
2	4800	4390.227464063273	1
2	4801	4390.414305226236	0
2	4840	4424.522510107466	1
2	4841	4425.243785767198	0
2	4865	4475.804721855164	1
2	4866	4476.631346001878	0
2	4880	4480.688518361776	1
2	4881	4481.840666197401	0
2	4890	4485.308399830988	1
2	4891	4486.241760765709	0
2	4940	4554.008911401387	1
2	4941	4554.388796345223	0
2	4965	4569.77148086092	1
2	4966	4570.714026108332	0
2	4970	4571.133466087563	1
2	4971	4572.610711924493	0
2	4975	4572.62217381226	1
2	4976	4574.081614629127	0
2	5020	4638.444128097502	1
2	5021	4639.908653857055	0
2	5025	4640.796383768323	1
2	5026	4641.166500572356	0
2	5040	4664.393421320707	1
2	5041	4665.774177562384	0
2	5060	4670.985125682296	1
2	5063	4672.362241358997	0
2	5085	4703.019133781426	1
2	5086	4703.278058690562	0
2	5140	4743.057163674364	1
2	5142	4743.066322230772	2
2	5143	4743.781823891646	1
2	5147	4744.311380832678	2
2	5149	4744.969892145707	3
2	5150	4745.129186120874	2
2	5153	4746.709656927607	1
2	5156	4748.2017225525	0
2	5160	4749.787591378044	1
2	5161	4750.017015647388	0
2	5165	4750.893902725412	1
2	5166	4751.422550352163	0
2	5195	4779.661244456248	1
2	5196	4780.33501362973	0
2	5200	4781.639591652076	1
2	5201	4782.001377544786	0
2	5215	4805.38675144549	1
2	5216	4805.550934250873	0
2	5290	4871.184758417209	1
2	5292	4871.690687935225	2
2	5294	4872.389727978967	3
2	5295	4872.408129935677	2
2	5299	4873.308283963757	3
2	5300	4874.377812651696	2
2	5304	4874.404774078643	3
2	5305	4876.100511129538	2
2	5309	4876.43342994765	3
2	5310	4877.633651323209	2
2	5313	4878.980500792118	1
2	5316	4880.469804220798	0
2	5330	4889.09376995182	1
2	5332	4889.593092444156	2
2	5334	4889.894041587401	3
2	5335	4890.858220526142	2
2	5338	4892.487775485715	1
2	5341	4894.018998971334	0
2	5355	4901.187783384117	1
2	5356	4901.372600865577	0
2	5375	4909.520959631695	1
2	5376	4909.741567196965	0
2	5390	4917.917076407006	1
2	5391	4918.170488429588	0
2	5400	4922.047969407346	1
2	5401	4922.370291955104	0
2	5410	4925.955768486214	1
2	5411	4926.151774277288	0
2	5447	4985.026164678011	1
2	5448	4985.171444704877	0
2	5452	4985.436070955261	1
2	5453	4986.723596220957	0
2	5460	4988.995373768283	1
2	5461	4989.637734269471	0
2	5505	5041.217779103547	1
2	5506	5041.784052319948	0
2	5560	5081.782648854274	1
2	5561	5083.100730066046	0
2	5565	5083.594576818016	1
2	5566	5084.402348583422	0
2	5640	5157.261544266432	1
2	5642	5157.850270746869	2
2	5643	5157.985974470722	1
2	5646	5159.371854109327	0
2	5690	5189.925093333745	1
2	5691	5190.93656526378	0
2	5780	5295.146506425687	1
2	5781	5296.690329645672	0
2	5895	5445.612709462636	1
2	5896	5445.623304374151	0
2	5905	5449.870770183611	1
2	5906	5450.146520896469	0
2	5910	5451.359514850213	1
2	5911	5451.890608849403	0
2	5915	5452.07110892149	1
2	5916	5453.32739528681	0
2	5920	5454.6670569548	1
2	5921	5454.814671976891	0
2	5930	5458.268533572252	1
2	5931	5458.688486523381	0
2	5940	5463.066446847147	1
2	5941	5463.891867762397	0
2	5955	5483.530992814168	1
2	5956	5483.95450494008	0
2	5970	5508.450527212478	1
2	5971	5510.235512739022	0
2	6000	5533.236350755456	1
2	6002	5533.644998517959	2
2	6003	5534.573080873409	1
2	6006	5536.449969256961	0
2	6025	5569.07679775406	1
2	6026	5569.420019887464	0
2	6065	5596.501659665101	1
2	6066	5597.28306590708	0
2	6080	5606.888554385285	1
2	6081	5608.029186396663	0
2	6095	5628.396545038226	1
2	6096	5629.621478814859	0
2	6100	5630.09043770589	1
2	6101	5630.992911547091	0
2	6110	5638.3219622431	1
2	6111	5638.954821309864	0
2	6115	5640.379187279817	1
2	6116	5640.69231388238	0
2	6120	5641.23620007818	1
2	6121	5642.094491021938	0
2	6135	5647.20984942159	1
2	6136	5648.459869039664	0
2	6140	5648.798320238132	1
2	6141	5649.664154753881	0
2	6145	5651.057563777569	1
2	6146	5651.615586775588	0
2	6165	5657.903633791746	1
2	6166	5659.313487418713	0
2	6185	5672.996192402447	1
2	6187	5673.015391471103	2
2	6188	5673.438452687007	1
2	6191	5674.966476288144	0
2	6200	5678.70846542074	1
2	6201	5679.065076015997	0
2	6210	5681.024772916506	1
2	6212	5681.028584071863	2
2	6213	5682.628316625718	1
2	6217	5683.499464797214	2
2	6218	5684.270607327994	1
2	6221	5685.766128359128	0
2	6225	5687.264157468991	1
2	6226	5687.455758352343	0
2	6250	5717.737782624287	1
2	6251	5718.265669846091	0
2	6260	5722.929042019385	1
2	6261	5723.25505801663	0
2	6280	5733.778995781792	1
2	6281	5734.948242621009	0
2	6285	5735.916825179195	1
2	6286	5736.836185101119	0
2	6310	5766.732187361056	1
2	6311	5768.401682545725	0
2	6340	5797.739415911832	1
2	6342	5797.987354446854	2
2	6343	5798.606155544533	1
2	6346	5800.438274275153	0
2	6402	5843.490514893246	1
2	6403	5844.930231266934	0
2	6415	5849.372369072456	1
2	6416	5850.123154066968	0
2	6450	5883.830018570374	1
2	6451	5884.314261860034	0
2	6455	5884.76214493502	1
2	6456	5885.943718418671	0
2	6460	5886.342173870837	1
2	6461	5887.262579878798	0
2	6470	5903.313811910144	1
2	6471	5904.768747454417	0
2	6480	5911.812268372058	1
2	6481	5913.356407638445	0
2	6495	5933.063302114848	1
2	6496	5934.877005878855	0
2	6565	6008.575708760394	1
2	6566	6008.618887289611	0
2	6580	6028.332454218105	1
2	6581	6029.043881259535	0
2	6595	6036.170066748714	1
2	6598	6037.159940886248	0
2	6625	6070.037671533763	1
2	6626	6071.466680994347	0
2	6630	6072.21048668889	1
2	6631	6073.346346627265	0
2	6635	6073.58163709601	1
2	6636	6074.578691363983	0
2	6665	6112.857754065832	1
2	6666	6113.491158489431	0
2	6700	6141.930212664055	1
2	6701	6143.48236413108	0
2	6710	6150.920384885963	1
2	6711	6151.022471328079	0
2	6725	6157.288138242236	1
2	6726	6157.543409971952	0
2	6747	6164.540920859174	1
2	6748	6166.199107135734	0
2	6755	6168.334835425848	1
2	6757	6169.125276979346	2
2	6758	6169.663994347392	1
2	6761	6171.656798937446	0
2	6765	6172.906193306058	1
2	6766	6173.391925576231	0
2	6805	6205.980263456014	1
2	6806	6206.360377788222	0
2	6825	6232.666783893763	1
2	6826	6234.209901408454	0
2	6830	6234.519939546626	1
2	6831	6235.887185682704	0
2	6845	6265.67366546611	1
2	6846	6265.95059752528	0
2	6852	6266.95180716408	1
2	6853	6267.372141207274	0
2	6857	6268.315894934443	1
2	6858	6268.971983057711	0
2	6880	6279.785805858792	1
2	6881	6280.089397428655	0
2	6930	6324.824968086508	1
2	6932	6325.140028628314	2
2	6933	6325.285916312577	1
2	6938	6326.828321397284	0
2	6942	6328.572010027892	1
2	6943	6328.588424232395	0
2	6947	6328.661280156181	1
2	6948	6330.12142863998	0
2	6965	6340.980731757436	1
2	6966	6341.380722063911	0
2	6990	6366.606293218283	1
2	6991	6366.852703978328	0
2	7030	6409.688278452978	1
2	7031	6410.357845176631	0
2	7110	6520.263257078297	1
2	7111	6520.588532689456	0
2	7115	6521.220020811966	1
2	7116	6522.058174214568	0
2	7125	6524.895088903962	1
2	7126	6525.929381355649	0
2	7130	6526.427971947176	1
2	7132	6526.94849011012	2
2	7133	6527.855969316518	1
2	7137	6528.09238296974	2
2	7138	6529.82743987721	1
2	7142	6530.404011717335	2
2	7143	6531.506051479658	1
2	7146	6533.129753126209	0
2	7150	6533.303866301489	1
2	7154	6534.620777660309	2
2	7156	6535.041941818398	3
2	7157	6535.086138830525	2
2	7162	6536.900048223888	1
2	7165	6538.594439626118	0
2	7172	6541.106188086683	1
2	7173	6541.684990863694	0
2	7177	6541.731929711792	1
2	7178	6543.415860466479	0
2	7195	6565.396606606491	1
2	7196	6566.487129664759	0
2	7205	6569.316531396705	1
2	7206	6571.151565080285	0
2	7255	6617.197558123287	1
2	7256	6617.283253171945	0
2	7285	6652.16063572267	1
2	7286	6653.871988678037	0
2	7300	6673.083030600391	1
2	7301	6674.507189420755	0
2	7305	6676.210742477163	1
2	7306	6676.412465733993	0
2	7315	6686.571824361731	1
2	7316	6687.569601949055	0
2	7385	6770.016378511423	1
2	7386	6770.068273471412	0
2	7465	6860.81605503818	1
2	7466	6860.838683820455	0
2	7470	6861.458938050731	1
2	7471	6862.568183171316	0
2	7490	6906.844035331114	1
2	7491	6907.092831019628	0
2	7500	6912.652467065595	1
2	7501	6913.401637463631	0
2	7540	6959.626525403365	1
2	7541	6960.360100636938	0
2	7605	7007.137980622468	1
2	7606	7007.633794585525	0
2	7615	7025.082740427477	1
2	7616	7025.419029013164	0
2	7660	7071.436796342746	1
2	7661	7072.422423330789	0
2	7700	7108.32012641929	1
2	7701	7109.344334636985	0
2	7730	7133.26519299733	1
2	7731	7133.287568195643	0
2	7735	7134.13689449532	1
2	7737	7134.430705028691	2
2	7738	7134.918264806004	1
2	7742	7135.741478579826	2
2	7743	7136.519397179516	1
2	7746	7138.061641969638	0
2	7760	7143.448691306652	1
2	7763	7144.385627305837	0
2	7780	7150.899623879332	1
2	7781	7152.125157678868	0
2	7810	7181.280847973708	1
2	7811	7182.352293186472	0
2	7825	7205.978529054754	1
2	7826	7206.922168034199	0
2	7845	7229.554960931428	1
2	7846	7230.851343545427	0
2	7885	7275.928556731643	1
2	7886	7276.989441429408	0
2	7895	7279.166914338002	1
2	7896	7279.96197548225	0
2	7905	7302.437201476984	1
2	7906	7302.494771195946	0
2	7920	7307.940640820507	1
2	7921	7308.013773593342	0
2	7935	7313.802597409173	1
2	7936	7314.564583154084	0
2	7970	7338.066653364361	1
2	7973	7339.164235059951	0
2	7995	7353.312232135124	1
2	7996	7353.981064915335	0
2	8015	7374.89443445502	1
2	8016	7375.338509779699	0
2	8030	7394.577794861333	1
2	8031	7396.266882082553	0
2	8035	7396.92980706504	1
2	8037	7396.956758516707	2
2	8038	7398.044422080473	1
2	8041	7399.629899338924	0
2	8045	7400.05110094015	1
2	8046	7401.425273372338	0
2	8050	7402.95314544707	1
2	8051	7403.285490404361	0
2	8082	7424.197318170802	1
2	8083	7425.058187287769	0
2	8090	7427.33532974619	1
2	8091	7427.789616122938	0
2	8095	7428.377483079536	1
2	8096	7429.022824616826	0
2	8107	7434.421387355925	1
2	8108	7435.990433697867	0
2	8115	7437.974882993327	1
2	8116	7438.638247166294	0
2	8120	7439.480453663496	1
2	8121	7439.901491401251	0
2	8130	7442.219902925673	1
2	8131	7443.140989304372	0
2	8170	7485.162788363398	1
2	8171	7485.839265964783	0
2	8220	7565.957109577199	1
2	8221	7566.129277419433	0
2	8275	7597.91878414418	1
2	8276	7599.085982943178	0
2	8340	7646.162042269543	1
2	8341	7646.8582474683	0
2	8350	7657.025755097682	1
2	8351	7657.403223990016	0
2	8355	7657.656335140311	1
2	8357	7658.485742387626	2
2	8358	7658.944919390343	1
2	8361	7660.641991984211	0
2	8415	7708.4131608641	1
2	8418	7709.604482689509	0
2	8450	7762.977170162023	1
2	8451	7764.03593997336	0
2	8470	7813.798960635286	1
2	8471	7814.801015601948	0
2	8485	7821.269343747696	1
2	8486	7822.340468841714	0
2	8490	7823.055923897345	1
2	8491	7824.149692844522	0
2	8495	7825.714083049803	1
2	8496	7826.120877768581	0
2	8525	7849.962749896464	1
2	8526	7850.559964797301	0
2	8535	7854.279305993318	1
2	8536	7855.034276903406	0
2	8550	7860.769997501984	1
2	8551	7861.055463509565	0
2	8555	7861.363723429682	1
2	8557	7861.392851265542	2
2	8558	7862.464666066622	1
2	8562	7862.986199815548	2
2	8565	7864.26111148831	1
2	8568	7866.020221328107	0
2	8572	7866.730682991093	1
2	8573	7867.360958987032	0
2	8605	7906.421389270746	1
2	8606	7906.695231980027	0
2	8620	7917.326712922101	1
2	8621	7917.405196027104	0
2	8635	7924.203837154833	1
2	8636	7925.068467358428	0
2	8650	7933.595128288257	1
2	8651	7934.626902874507	0
2	8660	7946.182227140006	1
2	8661	7948.000490765193	0
2	8665	7949.249026734922	1
2	8666	7949.557536347875	0
2	8720	8015.568887512794	1
2	8721	8015.743448364827	0
2	8735	8022.480350184762	1
2	8736	8022.846681066944	0
2	8740	8024.021002506719	1
2	8741	8024.619147746606	0
2	8745	8024.846876135373	1
2	8747	8025.513770987256	2
2	8748	8026.54739219003	1
2	8751	8028.348704313455	0
2	8780	8056.822156095826	1
2	8781	8057.851915679299	0
2	8790	8061.01451693422	1
2	8791	8062.38322323512	0
2	8845	8127.937865685526	1
2	8846	8129.137524093196	0
2	8855	8134.694691510197	1
2	8856	8134.92592123415	0
2	8865	8137.954534492184	1
2	8866	8139.040757724659	0
2	8870	8139.423645664799	1
2	8871	8140.630810844169	0
2	8875	8142.387483300266	1
2	8876	8142.508570464716	0
2	8880	8142.53713585781	1
2	8881	8143.825610849463	0
2	8890	8150.512919822282	1
2	8892	8151.503163665326	2
2	8893	8152.020532183436	1
2	8896	8153.857787003455	0
2	8975	8228.363549036152	1
2	8976	8228.603627036585	0
2	8980	8229.578857617136	1
2	8981	8230.486494761965	0
2	8995	8254.892771597015	1
2	8996	8254.906512212844	0
2	9010	8266.331509860958	1
2	9011	8266.628288676259	0
2	9020	8269.22335601658	1
2	9021	8269.800006436789	0
2	9030	8273.642931056478	1
2	9032	8274.227502382214	2
2	9033	8274.382806137526	1
2	9037	8274.894249266229	2
2	9038	8275.66986032235	1
2	9041	8277.642888579653	0
2	9045	8278.053953118139	1
2	9046	8279.431782984124	0
2	9050	8280.322178498482	1
2	9052	8280.814832128506	2
2	9053	8281.161571143331	1
2	9056	8282.830193530718	0
2	9067	8285.987316331712	1
2	9068	8286.016675735029	0
2	9080	8290.50580036702	1
2	9081	8292.153590314271	0
2	9085	8293.543694864223	1
2	9086	8293.627335788304	0
2	9090	8293.777853272893	1
2	9092	8294.473368199557	2
2	9093	8295.612509370217	1
2	9097	8295.710801105251	2
2	9098	8297.242982707912	1
2	9102	8298.554352580239	2
2	9103	8298.997273533599	1
2	9108	8300.201439104037	0
2	9120	8317.75753285229	1
2	9121	8319.455733668409	0
2	9125	8320.686283621866	1
2	9126	8321.00883373262	0
2	9135	8325.702434194608	1
2	9137	8326.04588651348	2
2	9138	8326.893477728434	1
2	9142	8327.225933261644	2
2	9143	8328.455154866196	1
2	9146	8330.315930135764	0
2	9155	8337.177240692261	1
2	9156	8337.73705691199	0
2	9175	8350.29062046745	1
2	9176	8351.06181062907	0
2	9180	8352.177079344116	1
2	9181	8352.439209937863	0
2	9185	8353.65343344496	1
2	9186	8354.177379012667	0
2	9190	8355.897703404296	1
2	9191	8355.93581157215	0
2	9195	8356.515857966202	1
2	9196	8357.881531913579	0
2	9200	8358.243476887421	1
2	9202	8359.270947971603	2
2	9203	8359.658753512614	1
2	9206	8361.19219312016	0
2	9225	8372.170087474269	1
2	9226	8372.893664231999	0
2	9255	8416.272762955384	1
2	9256	8416.998690037928	0
2	9260	8417.514362773803	1
2	9261	8418.442202517889	0
2	9265	8419.756403132229	1
2	9266	8419.87067780172	0
2	9355	8506.333920804058	1
2	9356	8506.397906952862	0
2	9420	8562.226592827099	1
2	9421	8562.41476164154	0
2	9430	8565.18953068545	1
2	9431	8565.930273402587	0
2	9450	8578.822798462369	1
2	9451	8579.336119263977	0
2	9455	8579.53451761429	1
2	9456	8580.863661189735	0
2	9460	8581.325620363752	1
2	9461	8582.736670927689	0
2	9465	8584.046225738313	1
2	9467	8584.263434976831	2
2	9468	8584.264866124265	1
2	9472	8585.888881794127	2
2	9473	8586.206565423481	1
2	9476	8587.416760784186	0
2	9480	8588.523518682322	1
2	9481	8588.972090562418	0
2	9495	8593.167285167999	1
2	9496	8595.01887990002	0
2	9530	8623.293102498624	1
2	9532	8623.459954690895	2
2	9533	8623.528988200749	1
2	9536	8625.462601294505	0
2	9550	8641.697858584998	1
2	9551	8642.139931587883	0
2	9560	8652.922550311316	1
2	9561	8653.495098713851	0
2	9565	8654.489278146184	1
2	9566	8654.877484493768	0
2	9575	8657.906478521144	1
2	9576	8659.325388734343	0
2	9580	8659.801015491342	1
2	9581	8660.658348982523	0
2	9587	8661.300136209564	1
2	9588	8662.035057025517	0
2	9592	8662.367958610312	1
2	9593	8663.941677305589	0
2	9600	8665.867901615982	1
2	9602	8667.128720977858	2
2	9603	8667.16818505984	1
2	9606	8668.50668706272	0
2	9615	8671.053780311993	1
2	9616	8672.409559512624	0
2	9625	8676.212461142572	1
2	9626	8676.447535518752	0
2	9682	8749.313865986821	1
2	9683	8749.331886742716	0
2	9692	8752.801785556144	1
2	9693	8753.050829733429	0
2	9710	8768.217830550682	1
2	9713	8769.174802891166	0
2	9725	8776.11536263831	1
2	9726	8777.76000927653	0
2	9735	8780.582110904038	1
2	9737	8781.798202544238	2
2	9738	8782.208676000097	1
2	9741	8783.738964167767	0
2	9790	8835.22702913412	1
2	9791	8835.73926514283	0
2	9795	8835.853515976023	1
2	9796	8837.717807027588	0
2	9820	8870.235501866851	1
2	9821	8870.476852652548	0
2	9840	8893.554416290966	1
2	9841	8894.859375238099	0
2	9850	8896.924604073762	1
2	9851	8898.336481098884	0
2	9880	8929.065358005395	1
2	9881	8930.170161869845	0
2	9910	8979.504328100463	1
2	9911	8980.874230890474	0
2	9915	8981.642221737687	1
2	9916	8982.29793261656	0
2	9920	8982.768648536552	1
2	9921	8983.612436279407	0
2	9925	8984.855055137661	1
2	9926	8985.139916838644	0
2	9935	8987.674102537675	1
2	9936	8987.812435380681	0
2	9965	9007.503018946222	1
2	9966	9008.334596297728	0
2	9985	9020.289466065385	1
2	9987	9020.371070372949	2
2	9988	9021.067814032953	1
2	9992	9021.895954931819	2
2	9993	9022.912285713885	1
2	9997	9024.332236717044	2
2	9998	9024.61623272508	1
2	10003	9026.18083753794	0
2	10010	9028.469725401263	1
2	10012	9029.090212808112	2
2	10013	9029.152512208405	1
2	10016	9030.678412516262	0
2	10020	9030.773544933762	1
2	10021	9032.25622854143	0
2	10075	9087.668887816247	1
2	10076	9088.975491426687	0
2	10090	9096.019710693343	1
2	10092	9096.255192698944	2
2	10093	9097.347067743006	1
2	10096	9098.982534283238	0
2	10150	9145.884195455555	1
2	10151	9146.676000907811	0
2	10215	9227.320513757127	1
2	10216	9227.793723248812	0
2	10225	9231.702638322509	1
2	10226	9232.024411727286	0
2	10247	9240.696418186353	1
2	10248	9242.035018944081	0
2	10254	9242.660959531859	1
2	10255	9243.448188587923	0
2	10310	9314.828201675816	1
2	10311	9314.877139848699	0
2	10315	9315.148183882218	1
2	10316	9316.607512596105	0
2	10330	9328.346917478651	1
2	10331	9329.089006170349	0
2	10335	9329.676410203346	1
2	10336	9330.500872885527	0
2	10350	9335.285940082697	1
2	10351	9335.527096593823	0
2	10360	9337.54434813067	1
2	10361	9338.913557786193	0
2	10375	9357.760170144378	1
2	10376	9358.657575474011	0
2	10445	9421.430647828449	1
2	10446	9422.962285956101	0
2	10475	9451.552806425501	1
2	10476	9453.111050883024	0
2	10525	9502.798801740212	1
2	10526	9503.584966232546	0
2	10552	9514.066671204044	1
2	10553	9515.058019678523	0
2	10559	9515.530939334154	1
2	10560	9516.453807474156	0
2	10569	9519.134424960266	1
2	10570	9519.774238873688	0
2	10585	9528.347682733479	1
2	10586	9528.828650090419	0
2	10595	9532.303509174083	1
2	10596	9532.661373170795	0
2	10600	9534.303065855689	1
2	10601	9534.478700133184	0
2	10642	9557.065027019596	1
2	10643	9557.349902256744	0
2	10662	9568.423692354229	1
2	10663	9569.606810741781	0
2	10670	9571.595296714548	1
2	10671	9572.667581593341	0
2	10680	9578.537256435662	1
2	10681	9580.077927494535	0
2	10715	9630.136806946185	1
2	10716	9631.445664718213	0
2	10720	9632.102320994927	1
2	10721	9632.658763882356	0
2	10727	9633.97760978616	1
2	10728	9634.20660308248	0
2	10805	9693.971058138772	1
2	10806	9695.200023129629	0
2	10840	9724.153496392109	1
2	10841	9724.324794515216	0
2	10855	9753.688912398154	1
2	10856	9755.195066153795	0
2	10890	9814.296924577091	1
2	10891	9815.725746911964	0
2	10977	9940.399343220446	1
2	10979	9941.803078574172	2
2	10980	9941.82489989222	1
2	10984	9942.60673273786	2
2	10985	9943.273082818361	1
2	10988	9945.031365013393	0
2	10995	9947.773152640971	1
2	10996	9948.078845917331	0
2	11015	9956.388784763086	1
2	11016	9956.502329180581	0
2	11080	10044.398939553836	1
2	11081	10044.759320673246	0
2	11090	10047.436201743328	1
2	11091	10048.354882383638	0
2	11109	10057.95528377391	1
2	11110	10058.732145192153	0
2	11114	10058.746223904012	1
2	11115	10060.427129408582	0
2	11122	10063.497059414532	1
2	11123	10063.706300818785	0
2	11165	10094.495725920477	1
2	11166	10094.737294109767	0
2	11170	10095.798503031895	1
2	11171	10096.333651214136	0
2	11180	10102.875752383499	1
2	11181	10103.364287164419	0
2	11190	10123.120333232524	1
2	11191	10123.453043508762	0
2	11210	10152.572636356463	1
2	11211	10153.531113759819	0
2	11215	10153.907884740928	1
2	11217	10154.608442710292	2
2	11218	10154.930681448076	1
2	11221	10156.800458031725	0
2	11225	10157.05729142403	1
2	11226	10158.264951784927	0
2	11250	10182.612634736963	1
2	11251	10182.925110032614	0
2	11260	10185.838302323401	1
2	11261	10185.846470396809	0
2	11265	10186.317651978051	1
2	11266	10187.132122071676	0
2	11305	10238.05687534388	1
2	11306	10238.427199158265	0
2	11405	10366.028272561647	1
2	11408	10367.528856037877	0
2	11415	10370.694551847821	1
2	11417	10370.836612414907	2
2	11418	10370.839562586457	1
2	11425	10372.449183761836	0
2	11429	10372.811626359839	1
2	11430	10374.278582649254	0
2	11465	10393.122408089989	1
2	11466	10393.873540901481	0
2	11485	10405.857947896761	1
2	11486	10406.349247358088	0
2	11545	10458.186441086313	1
2	11546	10459.194178142443	0
2	11595	10536.946800663564	1
2	11596	10537.563626816599	0
2	11600	10539.107313071076	1
2	11601	10539.309797068788	0
2	11605	10539.606283258075	1
2	11606	10540.937864284134	0
2	11610	10541.421645443247	1
2	11611	10542.240065146154	0
2	11670	10647.321050537068	1
2	11671	10648.577652953859	0
2	11695	10661.136311466901	1
2	11696	10662.112658191718	0
2	11700	10663.787504171229	1
2	11701	10664.073851899676	0
2	11725	10693.421911918216	1
2	11726	10693.452045139909	0
2	11730	10693.946032843376	1
2	11731	10694.92121105963	0
2	11740	10699.129061510813	1
2	11742	10699.478148704729	2
2	11743	10700.13832847768	1
2	11747	10700.208245057292	2
2	11750	10701.740213936507	1
2	11753	10703.618698728956	0
2	11765	10709.089659136547	1
2	11766	10710.644445962753	0
2	11865	10861.517730175472	1
2	11866	10861.675424563647	0
2	11870	10861.774773879364	1
2	11872	10862.849146794797	2
2	11873	10863.519843412884	1
2	11877	10864.597374290813	2
2	11878	10864.906902574137	1
2	11881	10866.395493765123	0
2	11890	10868.029371180683	1
2	11891	10869.367096532373	0
2	11905	10877.657063892278	1
2	11906	10878.414946322436	0
2	11945	10911.936956359888	1
2	11946	10912.300469439993	0
2	11950	10912.552236347698	1
2	11951	10913.947200349862	0
2	11985	10958.769596542638	1
2	11986	10959.54489218505	0
2	12070	11090.608266797472	1
2	12071	11091.623942770705	0
2	12085	11120.511593618149	1
2	12086	11121.097241575767	0
2	12095	11125.169334400805	1
2	12096	11126.556717505507	0
2	12105	11130.667153842828	1
2	12107	11131.252675106782	2
2	12108	11131.391072394205	1
2	12111	11133.009657964734	0
2	12125	11155.108651976864	1
2	12126	11156.011631860254	0
2	12140	11160.877515491593	1
2	12141	11161.353865782054	0
2	12155	11174.245496000818	1
2	12156	11174.661799823953	0
2	12195	11223.385778617004	1
2	12196	11225.341074556201	0
2	12240	11280.512042221908	1
2	12241	11281.252203571459	0
2	12270	11298.765594710834	1
2	12271	11299.520832091325	0
2	12275	11300.016008961861	1
2	12276	11301.019264002831	0
2	12307	11319.215949869211	1
2	12308	11319.68283456106	0
2	12320	11326.518880397453	1
2	12321	11327.118423374437	0
2	12335	11353.052618351319	1
2	12336	11354.729885766702	0
2	12340	11355.088336205297	1
2	12341	11356.506347175362	0
2	12365	11370.121711653596	1
2	12366	11370.814694611567	0
2	12385	11385.487855743694	1
2	12386	11385.561962344492	0
2	12405	11410.084658507824	1
2	12406	11410.949932717592	0
2	12420	11423.535029950225	1
2	12421	11423.741763100283	0
2	12485	11482.353058423251	1
2	12486	11483.645205803339	0
2	12500	11492.558138615684	1
2	12503	11492.948456126615	0
2	12535	11523.82737916906	1
2	12537	11524.599239796352	2
2	12538	11524.738486750216	1
2	12541	11526.300380239242	0
2	12545	11526.73863164477	1
2	12547	11526.986421559772	2
2	12548	11528.067213471213	1
2	12551	11529.949280816668	0
2	12555	11531.083191521153	1
2	12557	11531.342065414907	2
2	12558	11531.670148506367	1
2	12561	11533.275449462028	0
2	12615	11604.975724330174	1
2	12617	11606.135703464458	2
2	12618	11606.17289836558	1
2	12622	11606.402628606915	2
2	12623	11607.94239237497	1
2	12626	11609.720538198411	0
2	12630	11610.691384442509	1
2	12631	11611.2983120315	0
2	12670	11643.41492114569	1
2	12671	11643.912463001547	0
2	12675	11644.453453434704	1
2	12676	11645.381747853769	0
2	12680	11645.393862659637	1
2	12681	11647.178767409561	0
2	12705	11659.031519362513	1
2	12706	11660.692147946573	0
2	12725	11681.888141190035	1
2	12727	11682.753232036069	2
2	12728	11683.28634550677	1
2	12732	11685.018893146811	2
2	12733	11685.076559692	1
2	12736	11686.325169433032	0
2	12750	11694.186950439201	1
2	12752	11695.915179831336	2
2	12753	11696.029831795391	1
2	12757	11697.730394786813	2
2	12758	11697.819942897927	1
2	12761	11699.707002149332	0
2	12770	11705.400767460658	1
2	12773	11706.26277528632	0
2	12777	11706.755385909384	1
2	12778	11707.780661777999	0
2	12782	11707.860373106307	1
2	12783	11709.665588163245	0
2	12787	11710.724063396671	1
2	12788	11711.328935092907	0
2	12805	11731.323534058697	1
2	12806	11731.602303754979	0
2	12810	11732.027102587623	1
2	12812	11732.352828626942	2
2	12813	11733.191246772812	1
2	12816	11734.951892922701	0
2	12845	11777.450245052108	1
2	12846	11777.759722722056	0
2	12850	11778.377356188227	1
2	12851	11779.109709199066	0
2	12860	11783.099015313973	1
2	12861	11783.637254107736	0
2	12870	11791.019589849615	1
2	12871	11792.32171227843	0
2	12885	11813.881090239703	1
2	12887	11814.205746674474	2
2	12888	11814.311426733526	1
2	12891	11815.815603527332	0
2	12915	11863.079996508132	1
2	12918	11864.407759652218	0
2	12925	11867.655867225863	1
2	12926	11867.767483034103	0
2	12940	11882.54837759695	1
2	12941	11882.6936570588	0
2	12975	11901.390146175913	1
2	12976	11901.829997776309	0
2	13000	11913.1829689967	1
2	13001	11914.8715832563	0
2	13010	11916.998657460001	1
2	13011	11918.349633451353	0
2	13025	11925.73890999717	1
2	13027	11926.691962122539	2
2	13028	11927.024076774192	1
2	13031	11928.767078113404	0
2	13240	12225.819354077537	1
2	13241	12226.000544762897	0
2	13260	12232.173568085919	1
2	13261	12233.228266339055	0
2	13270	12248.537174325348	1
2	13271	12249.809496497129	0
2	13287	12256.369426769061	1
2	13288	12257.163376851376	0
2	13292	12257.44990389269	1
2	13293	12258.514637951922	0
2	13310	12281.762467839827	1
2	13311	12282.067375547402	0
2	13320	12288.065990367125	1
2	13321	12288.295932111178	0
2	13340	12299.92675397758	1
2	13341	12301.136461499423	0
2	13390	12372.330198195704	1
2	13392	12372.47885003959	2
2	13393	12373.167959891598	1
2	13397	12374.288204245613	2
2	13398	12374.859488507326	1
2	13402	12375.048387746063	2
2	13403	12376.299419074658	1
2	13406	12377.506301023032	0
2	13410	12377.653217593299	1
2	13411	12378.737051711197	0
2	13450	12484.214045202242	1
2	13451	12484.395116199437	0
2	13455	12486.076218348137	1
2	13456	12486.391968389857	0
2	13470	12494.720175610534	1
2	13471	12495.119103973403	0
2	13495	12509.718188537875	1
2	13496	12509.789512407583	0
2	13505	12512.460109722807	1
2	13506	12513.130212048804	0
2	13510	12513.178281140374	1
2	13512	12515.013590024135	2
2	13513	12515.028365827342	1
2	13517	12515.413724632196	2
2	13519	12516.008467203787	3
2	13520	12516.820520108742	2
2	13523	12518.287395424386	1
2	13528	12519.808441474279	0
2	13532	12520.599468757599	1
2	13533	12521.197619207939	0
2	13560	12542.928900833293	1
2	13561	12543.423067545577	0
2	13565	12544.443992867533	1
2	13566	12545.250534966274	0
2	13580	12555.468011273909	1
2	13581	12556.25453458288	0
2	13600	12573.341264732742	1
2	13603	12574.657753706263	0
2	13635	12634.538231264066	1
2	13636	12636.236866029753	0
2	13660	12652.08721806616	1
2	13661	12652.196879568024	0
2	13725	12727.867223382753	1
2	13726	12728.568706880806	0
2	13730	12729.016315291708	1
2	13731	12730.41385052569	0
2	13735	12731.423221660631	1
2	13736	12732.194639553798	0
2	13745	12739.242795566735	1
2	13746	12739.54424303404	0
2	13750	12739.874191951778	1
2	13751	12741.269178542373	0
2	13755	12741.724141683763	1
2	13756	12742.767735391733	0
2	13760	12743.841988007191	1
2	13761	12744.064141011861	0
2	13795	12760.442255575466	1
2	13796	12760.731997562146	0
2	13805	12767.345769910823	1
2	13806	12769.055965787209	0
2	13830	12788.027462983776	1
2	13831	12789.739215391317	0
2	13870	12829.323959702933	1
2	13871	12829.456107564286	0
2	13890	12849.557324402257	1
2	13892	12849.76228127546	2
2	13893	12851.096962839504	1
2	13896	12852.644223548983	0
2	13900	12854.176922450302	1
2	13902	12854.380595288073	2
2	13903	12854.468080251802	1
2	13908	12856.029272269409	0
2	13915	12857.52487312929	1
2	13916	12858.791199021179	0
2	13960	12898.770354757552	1
2	13962	12899.020330773185	2
2	13963	12900.585866029409	1
2	13968	12902.079599969124	0
2	13980	12929.882278888669	1
2	13981	12930.499047262581	0
2	14000	12954.921900213402	1
2	14001	12956.066829340246	0
2	14065	13020.75341058596	1
2	14066	13020.760321303329	0
2	14075	13038.151423039258	1
2	14076	13039.308499199602	0
2	14080	13040.220689057817	1
2	14081	13041.287830713655	0
2	14085	13042.252908167285	1
2	14086	13042.812723867486	0
2	14127	13075.250356773817	1
2	14128	13075.503002507776	0
2	14132	13075.84775633092	1
2	14133	13077.303669395462	0
2	14150	13085.400134632867	1
2	14151	13085.604781169733	0
2	14162	13088.835295779529	1
2	14163	13088.953900164655	0
2	14200	13127.203371325152	1
2	14201	13128.334404068074	0
2	14240	13154.070007987447	1
2	14241	13155.13905691213	0
2	14250	13159.731735416551	1
2	14253	13160.818742270972	0
2	14257	13161.071272569945	1
2	14258	13162.656425883639	0
2	14262	13162.732700240336	1
2	14263	13164.082452957909	0
2	14267	13164.356842206842	1
2	14269	13165.081007834352	2
2	14271	13165.092139843648	3
2	14276	13166.078393949959	2
2	14279	13167.47347787192	1
2	14283	13168.542885549553	2
2	14284	13168.706815850194	1
2	14289	13170.207272247802	0
2	14299	13173.862751720896	1
2	14302	13174.669245740975	0
2	14314	13178.679168300779	1
2	14315	13179.55859948622	0
2	14324	13182.550058814704	1
2	14325	13183.140118508991	0
2	14395	13242.244622448971	1
2	14396	13242.357332877303	0
2	14410	13254.452523786193	1
2	14411	13255.873544734812	0
2	14420	13274.178864054016	1
2	14421	13274.67325680019	0
2	14430	13277.295183202499	1
2	14431	13277.929963952031	0
2	14435	13278.992498045176	1
2	14436	13279.205062318135	0
2	14465	13350.078210934505	1
2	14466	13351.341285291427	0
2	14492	13390.935180840457	1
2	14493	13391.104290324943	0
2	14497	13391.114085010525	1
2	14498	13392.987274909885	0
2	14502	13394.175697706025	1
2	14503	13394.926020939396	0
2	14510	13397.861818623919	1
2	14511	13398.658059139856	0
2	14537	13419.815716820804	1
2	14538	13421.086272754151	0
2	14560	13469.872479702181	1
2	14561	13471.449588256031	0
2	14600	13505.688660391332	1
2	14601	13506.592025765401	0
2	14605	13507.095923478942	1
2	14606	13508.136247857098	0
2	14610	13509.927828976943	1
2	14611	13510.09601610731	0
2	14615	13511.041451113103	1
2	14616	13511.761334178407	0
2	14640	13535.658855176815	1
2	14641	13536.746298910594	0
2	14710	13600.096800600574	1
2	14711	13601.447120649444	0
2	14725	13608.692644995851	1
2	14726	13608.910658316833	0
2	14770	13631.490277214405	1
2	14771	13631.690421718268	0
2	14785	13665.376391447003	1
2	14787	13666.515815926678	2
2	14788	13666.864780818116	1
2	14791	13668.365603553321	0
2	14795	13669.256980749149	1
2	14797	13669.605541986951	2
2	14798	13669.961281933639	1
2	14801	13671.433281281967	0
2	14817	13683.605752776816	1
2	14818	13683.643961755083	0
2	14860	13736.674567492659	1
2	14862	13736.863564132747	2
2	14863	13737.28641621389	1
2	14866	13738.508343494614	0
2	14875	13742.535098004075	1
2	14876	13742.974793319783	0
2	14885	13746.879077185415	1
2	14886	13747.332655814218	0
2	14895	13750.818133010414	1
2	14896	13751.410179809164	0
2	14915	13780.978903325271	1
2	14916	13781.420411063024	0
2	14970	13824.945430583246	1
2	14971	13826.589997716932	0
2	14995	13852.807333034369	1
2	14996	13853.824491203324	0
2	15075	13944.102587667808	1
2	15076	13945.16106463348	0
2	15090	13951.961236836487	1
2	15091	13953.386296490279	0
2	15100	13957.781473729181	1
2	15101	13958.981595623601	0
2	15105	13960.84894565183	1
2	15106	13960.94112084258	0
2	15115	13975.651841942099	1
2	15116	13977.041947235509	0
2	15120	13978.072887907376	1
2	15121	13978.325377387895	0
2	15125	13979.121490635225	1
2	15126	13980.130257592506	0
2	15200	14118.289397780283	1
2	15201	14119.651378902018	0
2	15205	14120.392996973256	1
2	15206	14121.15065593195	0
2	15245	14159.270300473604	1
2	15246	14159.29867079669	0
2	15265	14183.759529496964	1
2	15266	14184.638409971103	0
2	15270	14184.694983784539	1
2	15271	14186.584011196747	0
2	15285	14207.696770220541	1
2	15286	14208.748985512149	0
2	15295	14211.361394127629	1
2	15296	14212.777850259444	0
2	15310	14216.389567027322	1
2	15311	14217.663201324545	0
2	15340	14237.258537706945	1
2	15341	14237.740021239184	0
2	15380	14296.321605706556	1
2	15381	14296.953664624676	0
2	15410	14317.901243870289	1
2	15411	14318.314456639702	0
2	15422	14334.361087254151	1
2	15423	14334.581456335239	0
2	15480	14403.924978691809	1
2	15481	14404.832591772248	0
2	15490	14409.188921645271	1
2	15491	14409.327524927671	0
2	15500	14412.263648293566	1
2	15501	14412.286955945638	0
2	15560	14530.073540623184	1
2	15561	14531.504309420816	0
2	15565	14532.034461601179	1
2	15566	14532.990378682844	0
2	15570	14533.024051912972	1
2	15571	14534.863835879385	0
2	15580	14538.97765351429	1
2	15581	14539.730717936947	0
2	15635	14611.316033136502	1
2	15636	14612.205490164044	0
2	15645	14615.969689865772	1
2	15646	14617.113322830476	0
2	15670	14634.635796042744	1
2	15671	14635.364160161877	0
2	15685	14646.282091534624	1
2	15686	14647.163871660857	0
2	15715	14682.332381692167	1
2	15716	14683.478917264241	0
2	15722	14684.429993920529	1
2	15723	14684.852594168718	0
2	15727	14684.968010285812	1
2	15729	14685.196641334987	2
2	15730	14686.330299803662	1
2	15733	14687.93361343206	0
2	15770	14732.613956011425	1
2	15772	14733.730378513667	2
2	15773	14733.990431553494	1
2	15776	14735.601714602668	0
2	15810	14771.813918304076	1
2	15811	14773.263702367202	0
2	15820	14776.987081841416	1
2	15821	14778.506807543492	0
2	15830	14781.882421762045	1
2	15831	14782.68980223719	0
2	15835	14782.938445926881	1
2	15836	14784.371195488199	0
2	15855	14806.891457330582	1
2	15856	14808.664784880999	0
2	15860	14809.186233379514	1
2	15861	14810.548378295537	0
2	15880	14837.035520701477	1
2	15883	14838.249904067425	0
2	15887	14838.758744960387	1
2	15888	14839.771739991365	0
2	15895	14841.563193921475	1
2	15896	14843.029813068529	0
2	15915	14876.199122278903	1
2	15916	14876.353972998256	0
2	15945	14890.791619193781	1
2	15946	14891.43086082755	0
2	15980	14913.931163500067	1
2	15981	14915.083881468531	0
2	15985	14915.297899566359	1
2	15986	14916.737505575847	0
2	15990	14918.128240960256	1
2	15991	14918.244685327653	0
2	16000	14927.876301875808	1
2	16002	14928.263492964837	2
2	16003	14928.480464080301	1
2	16006	14930.036615652171	0
2	16010	14930.090718728527	1
2	16011	14931.244980257143	0
2	16060	15004.856573652126	1
2	16062	15005.81014465103	2
2	16063	15006.106225113475	1
2	16066	15007.792840681316	0
2	16075	15010.971137322866	1
2	16076	15011.001762387061	0
2	16085	15022.565673648082	1
2	16086	15023.441836993916	0
2	16115	15047.615582908912	1
2	16117	15047.784255872263	2
2	16118	15048.179797955781	1
2	16122	15048.855122928794	2
2	16125	15049.530795219719	1
2	16128	15050.897850808121	0
2	16140	15078.264792407763	1
2	16144	15079.714893615761	2
2	16145	15079.962421969463	1
2	16148	15081.800746518698	0
2	16152	15082.363446588909	1
2	16153	15083.072863578376	0
2	16175	15122.239325028111	1
2	16177	15122.910319873019	2
2	16178	15123.093978124166	1
2	16183	15124.745781811195	0
2	16205	15154.982707090191	1
2	16206	15156.102298644921	0
2	16210	15156.314201077629	1
2	16213	15158.026520772269	0
2	16217	15158.095593389079	1
2	16218	15159.935878901547	0
2	16225	15161.646043610043	1
2	16226	15162.95072320736	0
2	16230	15164.229971667996	1
2	16231	15164.867576985797	0
2	16240	15169.549164846284	1
2	16241	15170.154035346096	0
2	16245	15170.811254229217	1
2	16246	15171.975523249877	0
2	16277	15206.009454170047	1
2	16278	15206.685666451219	0
2	16287	15209.067827139667	1
2	16288	15209.87062021977	0
2	16315	15230.412740846513	1
2	16317	15230.849721490899	2
2	16318	15231.09680657624	1
2	16321	15233.033960580777	0
2	16365	15300.436268876269	1
2	16366	15301.458315223573	0
2	16395	15321.707454829885	1
2	16396	15323.342235090854	0
2	16400	15323.768099417831	1
2	16402	15323.787368799606	2
2	16403	15325.313015375929	1
2	16406	15326.893835721621	0
2	16425	15354.213801060975	1
2	16426	15354.963753426194	0
2	16435	15377.191409965082	1
2	16436	15377.272281419156	0
2	16490	15455.274813739761	1
2	16491	15455.346072762811	0
2	16525	15477.1720926652	1
2	16526	15477.974964467092	0
2	16565	15508.243134537942	1
2	16567	15508.542070772393	2
2	16568	15509.249221106257	1
2	16572	15510.207415276943	2
2	16573	15510.949944073531	1
2	16577	15511.600303541009	2
2	16579	15512.307832064765	3
2	16580	15512.54207280689	2
2	16584	15512.679179668067	3
2	16585	15514.083651560741	2
2	16589	15515.055957961257	3
2	16590	15515.285476365695	2
2	16593	15516.859319811883	1
2	16597	15517.329200557448	2
2	16599	15517.95983286941	3
2	16600	15518.330907990421	2
2	16603	15519.603714976656	1
2	16606	15521.225373754847	0
2	16615	15524.835868325394	1
2	16617	15524.930252844445	2
2	16619	15525.483751774891	3
2	16620	15525.997438254027	2
2	16623	15527.985291870131	1
2	16626	15529.907122930518	0
2	16630	15530.728926969564	1
2	16631	15531.66683267486	0
2	16635	15532.35181986694	1
2	16636	15533.652835682041	0
2	16645	15536.475651591375	1
2	16646	15537.622352922055	0
2	16655	15542.025710431444	1
2	16656	15542.171126499891	0
2	16660	15542.410657376422	1
2	16661	15543.686331655577	0
2	16680	15554.19944471209	1
2	16681	15554.800862668053	0
2	16705	15573.067157828674	1
2	16706	15573.776754609402	0
2	16720	15578.914614769781	1
2	16721	15579.666013647415	0
2	16735	15588.804730121457	1
2	16736	15590.037378281883	0
2	16765	15612.402305971338	1
2	16766	15613.666878027928	0
2	16770	15614.551394880746	1
2	16771	15615.285976996918	0
2	16800	15646.918994337604	1
2	16801	15648.60968040239	0
2	16830	15666.25193345066	1
2	16831	15666.478444209629	0
2	16845	15670.79900574338	1
2	16847	15671.829989780015	2
2	16848	15671.906201183844	1
2	16851	15673.836936627749	0
2	16855	15675.528229231324	1
2	16856	15675.594278115641	0
2	16865	15679.302344208819	1
2	16866	15680.901940824115	0
2	16880	15685.657703170667	1
2	16881	15686.353478184268	0
2	16895	15693.671223445632	1
2	16896	15694.031845878451	0
2	16915	15708.061827965901	1
2	16916	15708.648136487679	0
2	16920	15708.765354499676	1
2	16921	15709.959817289637	0
2	16960	15763.594791957657	1
2	16961	15764.243481901585	0
2	16965	15764.340802413394	1
2	16967	15765.377959236338	2
2	16968	15765.482666261791	1
2	16971	15767.475939912832	0
2	16975	15768.392864859293	1
2	16976	15769.270700701437	0
2	16980	15769.640677228313	1
2	16981	15770.488321307971	0
2	16985	15770.797652128647	1
2	16986	15771.786012312694	0
2	16990	15772.054039350498	1
2	16991	15773.407405787258	0
2	17000	15776.827741576234	1
2	17001	15777.738446812307	0
2	17005	15778.827183589858	1
2	17006	15779.207216073175	0
2	17025	15793.203151349149	1
2	17026	15793.631693240525	0
2	17030	15795.211045585156	1
2	17031	15795.32349513554	0
2	17090	15848.519149896924	1
2	17093	15849.199066010475	0
2	17105	15853.060605243084	1
2	17106	15854.075800676442	0
2	17110	15854.917498601222	1
2	17111	15855.927720527149	0
2	17135	15872.55300883335	1
2	17140	15873.793974226447	0
2	17144	15875.183155356637	1
2	17146	15875.334351891902	2
2	17147	15875.465485898325	1
2	17150	15877.361799426669	0
2	17154	15877.789359951689	1
2	17156	15878.732414018202	2
2	17157	15879.019662873739	1
2	17160	15880.520033414395	0
2	17172	15884.160008215837	1
2	17174	15884.469526938535	2
2	17175	15885.382091592358	1
2	17178	15887.248478329474	0
2	17187	15889.2716853596	1
2	17188	15890.048852012226	0
2	17210	15932.314843509468	1
2	17211	15933.646197866877	0
2	17225	15950.581025849651	1
2	17226	15951.194515703744	0
2	17230	15951.704516214363	1
2	17231	15952.652203042931	0
2	17285	16011.112409052196	1
2	17286	16011.514169574503	0
2	17307	16035.646520700973	1
2	17308	16035.755940756467	0
2	17315	16037.29992251038	1
2	17317	16038.064555747565	2
2	17318	16039.028672848907	1
2	17321	16040.394359854501	0
2	17325	16040.498942828693	1
2	17326	16041.774756776806	0
2	17330	16043.367022206932	1
2	17331	16043.603729625497	0
2	17380	16083.393980197652	1
2	17382	16083.632097835135	2
2	17383	16083.873295396626	1
2	17386	16085.081781423524	0
2	17420	16112.847138232223	1
2	17421	16113.73055761055	0
2	17435	16159.075819183493	1
2	17437	16159.417392195931	2
2	17438	16160.732733889979	1
2	17441	16162.022918024783	0
2	17470	16187.89696981506	1
2	17471	16189.417289266035	0
2	17505	16245.542220200631	1
2	17506	16246.62012361997	0
2	17545	16295.992300880583	1
2	17546	16296.417596737811	0
2	17555	16308.850505810789	1
2	17556	16309.28019331773	0
2	17580	16325.108162240351	1
2	17584	16325.482196871187	2
2	17585	16326.496817045167	1
2	17588	16327.953899607688	0
2	17625	16360.744342288751	1
2	17626	16361.394344422067	0
2	17650	16395.131131601547	1
2	17651	16395.412671276416	0
2	17690	16430.247085801173	1
2	17691	16431.561637591761	0
2	17730	16473.431385687418	1
2	17731	16473.777520133209	0
2	17775	16539.862578733435	1
2	17776	16540.504594777113	0
2	17830	16607.196332810794	1
2	17831	16607.794996007385	0
2	17835	16607.854948336438	1
2	17836	16609.428093636075	0
2	17880	16667.370332781122	1
2	17881	16668.264946095507	0
2	17935	16733.87215753563	1
2	17937	16734.390732803581	2
2	17938	16734.454829915776	1
2	17941	16736.128530141874	0
2	17990	16809.850858683336	1
2	17992	16810.352618109559	2
2	17993	16810.908798154646	1
2	17996	16812.623888241888	0
2	18000	16813.504564772275	1
2	18001	16814.026825268769	0
2	18005	16815.866861637976	1
2	18006	16815.910438543947	0
2	18015	16818.617414586476	1
2	18016	16820.038068370522	0
2	18025	16822.336996976011	1
2	18026	16824.087641277553	0
2	18045	16830.766741222619	1
2	18046	16831.671737393411	0
2	18050	16831.741722023896	1
2	18051	16833.439607413905	0
2	18070	16861.813084552022	1
2	18071	16862.933508488186	0
2	18080	16888.691977968465	1
2	18081	16890.365798351215	0
2	18100	16905.771129731291	1
2	18101	16906.700286395723	0
2	18115	16916.594003048329	1
2	18116	16918.083733562457	0
2	18130	16923.314619063613	1
2	18131	16923.847481106244	0
2	18145	16936.875639133052	1
2	18146	16937.53757162439	0
2	18175	16982.247741235645	1
2	18178	16983.132975627751	0
2	18235	17087.741724499031	1
2	18237	17088.889851280864	2
2	18238	17088.94461455315	1
2	18241	17090.244678836387	0
2	18250	17092.35707181729	1
2	18252	17092.790049176091	2
2	18253	17093.514233753343	1
2	18258	17094.857866355662	0
2	18295	17131.527624866979	1
2	18296	17131.648932778696	0
2	18305	17134.305467192619	1
2	18306	17134.696131683411	0
2	18315	17139.550383530892	1
2	18316	17140.176120341183	0
2	18330	17164.555194108649	1
2	18331	17165.0789291969	0
2	18335	17166.441587703439	1
2	18336	17166.520754440172	0
2	18345	17175.305730988592	1
2	18346	17175.8853130257	0
2	18362	17182.941872433916	1
2	18365	17184.081484029703	0
2	18372	17186.584927644341	1
2	18373	17186.983464978151	0
2	18440	17250.312323449901	1
2	18441	17251.20020060513	0
2	18460	17261.511630374856	1
2	18461	17263.062618349708	0
2	18475	17283.019996603406	1
2	18476	17283.85834892303	0
2	18485	17293.524539337666	1
2	18486	17294.74023422178	0
2	18500	17298.647036106976	1
2	18501	17300.214885267204	0
2	18505	17300.346583289796	1
2	18506	17301.42452619165	0
2	18560	17365.576235698147	1
2	18561	17366.681807110594	0
2	18580	17381.70234909826	1
2	18581	17383.114947313238	0
2	18585	17383.35662367801	1
2	18586	17384.484549590554	0
2	18600	17392.556739828226	1
2	18601	17393.194423695233	0
2	18610	17396.845311072784	1
2	18614	17397.518739307952	2
2	18615	17398.093321496044	1
2	18619	17398.965678465423	2
2	18620	17399.41220272163	1
2	18623	17400.907440926489	0
2	18642	17414.255804438489	1
2	18643	17415.214651726738	0
2	18652	17418.364521389758	1
2	18653	17418.462236974382	0
2	18715	17471.041580289954	1
2	18716	17472.698394900634	0
2	18720	17474.002158133475	1
2	18721	17474.663993484973	0
2	18725	17475.075655248758	1
2	18727	17475.176066705559	2
2	18728	17476.488313215672	1
2	18731	17477.875207693203	0
2	18750	17509.832241473105	1
2	18751	17511.089912243941	0
2	18805	17574.622642104892	1
2	18806	17575.345723196849	0
2	18860	17647.098639312065	1
2	18861	17647.905662367795	0
2	18880	17679.395291001571	1
2	18881	17680.153765310979	0
2	18935	17742.867048458953	1
2	18936	17743.446780281775	0
2	18960	17754.889121116682	1
2	18961	17755.589275802868	0
2	18965	17756.074183384033	1
2	18966	17756.95465312061	0
2	18970	17758.018846002833	1
2	18971	17758.84418832549	0
2	18975	17758.894128468507	1
2	18976	17760.791926066029	0
2	18990	17767.480745974257	1
2	18991	17768.207022953603	0
2	19000	17777.884195052686	1
2	19001	17778.067951851159	0
2	19005	17778.676588719899	1
2	19006	17779.433264021955	0
2	19075	17849.724795469943	1
2	19076	17850.473166044543	0
2	19130	17895.222883624347	1
2	19133	17896.559492161827	0
2	19140	17898.563691460249	1
2	19141	17900.334374795997	0
2	19175	17925.144667077289	1
2	19176	17926.647807581764	0
2	19200	17954.826766019857	1
2	19202	17955.693422590927	2
2	19203	17956.657625180902	1
2	19206	17958.10830896073	0
2	19240	17995.604552397119	1
2	19241	17995.639490215593	0
2	19315	18074.328919044637	1
2	19316	18074.701119135785	0
2	19325	18077.489438412662	1
2	19326	18078.571366934383	0
2	19330	18079.993522840009	1
2	19331	18080.286072168776	0
2	19355	18116.526691632054	1
2	19356	18118.267158466586	0
2	19362	18119.6194075219	1
2	19363	18119.85307779611	0
2	19367	18120.105922872138	1
2	19368	18121.730927266189	0
2	19380	18137.333053616573	1
2	19381	18138.712383619919	0
2	19385	18139.893781456307	1
2	19386	18140.090352445133	0
2	19400	18149.813466836535	1
2	19401	18151.029365089925	0
2	19405	18151.278630501025	1
2	19406	18152.615292450616	0
2	19455	18213.174229266407	1
2	19456	18214.506217795552	0
2	19475	18225.467038673405	1
2	19476	18225.52454180881	0
2	19550	18308.612354657077	1
2	19551	18309.274078402547	0
2	19565	18327.144826275833	1
2	19566	18327.55242684856	0
2	19570	18327.976803231045	1
2	19571	18329.496679785288	0
2	19580	18333.303177794626	1
2	19581	18333.444804614456	0
2	19585	18334.503456193795	1
2	19586	18335.065462429868	0
2	19590	18335.566773449776	1
2	19591	18336.319767463999	0
2	19615	18358.859000855132	1
2	19616	18360.077686002942	0
2	19640	18400.434946776715	1
2	19641	18401.886292760238	0
2	19650	18407.357177474458	1
2	19651	18407.408647759546	0
2	19710	18486.051735143417	1
2	19711	18487.329646666532	0
2	19715	18488.129480687317	1
2	19716	18489.150602054594	0
2	19775	18603.675551389446	1
2	19776	18604.644650722396	0
2	19825	18659.27554727282	1
2	19826	18660.044348313675	0
2	19830	18661.001082053763	1
2	19831	18661.477750754372	0
2	19950	18826.720613422103	1
2	19951	18828.511358839383	0
2	20065	18992.923058002809	1
2	20066	18993.620581419342	0
2	20070	18994.441294354575	1
2	20071	18995.537846063771	0
2	20075	18995.764015244666	1
2	20076	18996.756534223021	0
2	20080	18998.322444966617	1
2	20081	18998.618831060962	0
2	20085	18999.278231743431	1
2	20086	18999.892185335742	0
2	20090	19001.024215032953	1
2	20091	19001.37076091575	0
2	20120	19026.917897968711	1
2	20121	19027.96898648742	0
2	20145	19078.426002482289	1
2	20146	19079.546273118661	0
2	20170	19117.145146155659	1
2	20171	19118.719216535698	0
2	20175	19119.049424582607	1
2	20176	19120.293487595666	0
2	20235	19210.176826277435	1
2	20237	19211.237390437209	2
2	20238	19211.454582604616	1
2	20242	19211.566348853488	2
2	20244	19211.8750949975	3
2	20246	19211.947010032647	4
2	20247	19213.415097368359	3
2	20250	19215.201994121298	2
2	20253	19217.011708325557	1
2	20257	19217.325689641843	2
2	20258	19218.844349304623	1
2	20261	19220.763809676505	0
2	20330	19280.092569442676	1
2	20331	19280.882286472796	0
2	20385	19376.556618743838	1
2	20386	19377.543417757086	0
2	20395	19386.224575852777	1
2	20396	19387.877706741523	0
2	20420	19401.312509994091	1
2	20421	19402.107492307062	0
2	20510	19503.3098232233	1
2	20511	19503.738165189273	0
2	20535	19515.314788593171	1
2	20536	19516.401550607064	0
2	20555	19531.211569475267	1
2	20556	19532.036104690236	0
2	20610	19599.035239343449	1
2	20611	19599.610487471938	0
2	20620	19604.604244323996	1
2	20621	19605.393705147995	0
2	20627	19606.127888476415	1
2	20628	19606.75930272427	0
2	20632	19607.923578806275	1
2	20634	19607.957816116448	2
2	20635	19608.463511140203	1
2	20639	19609.699922601575	2
2	20640	19610.240219686298	1
2	20643	19612.106660563058	0
2	20655	19624.611511787788	1
2	20656	19626.246492583983	0
2	20670	19634.825682542642	1
2	20672	19635.908151156075	2
2	20673	19636.001832528318	1
2	20677	19636.804369122432	2
2	20678	19637.638900640885	1
2	20681	19639.018739385436	0
2	20690	19670.239237629254	1
2	20691	19670.59078587112	0
2	20695	19671.218451084299	1
2	20696	19672.126568272756	0
2	20705	19674.909497485635	1
2	20707	19675.008587991314	2
2	20708	19675.311739546204	1
2	20711	19677.077952914828	0
2	20725	19686.138234779899	1
2	20726	19687.451295611625	0
2	20780	19756.134124539292	1
2	20781	19757.725136201221	0
2	20785	19759.079746599468	1
2	20787	19759.161833831789	2
2	20788	19759.513706422548	1
2	20791	19760.72337853736	0
2	20805	19775.987927236879	1
2	20806	19777.142994670729	0
2	20885	19862.475813093176	1
2	20886	19862.892330421088	0
2	20925	19912.513525086512	1
2	20926	19913.167631912289	0
2	20935	19917.647424438724	1
2	20936	19918.24064617862	0
2	20985	20008.254113897798	1
2	20986	20009.269259212796	0
2	21000	20015.887948568422	1
2	21001	20016.367187111242	0
2	21030	20052.336640289394	1
2	21031	20052.503580337541	0
2	21045	20062.65303000336	1
2	21046	20063.080165896951	0
2	21065	20074.823090248013	1
2	21067	20076.618966325836	2
2	21068	20076.75892688741	1
2	21071	20078.736391191529	0
2	21090	20089.516444726693	1
2	21091	20090.044905940276	0
2	21150	20150.753830086125	1
2	21152	20152.161245898721	2
2	21153	20152.233377725466	1
2	21156	20153.76602828393	0
2	21160	20155.0359613117	1
2	21161	20155.444654012679	0
2	21175	20169.942738342084	1
2	21176	20171.291308381525	0
2	21200	20189.668204941695	1
2	21201	20190.302673450318	0
2	21235	20223.603698858217	1
2	21236	20224.670774640233	0
2	21250	20231.679738702454	1
2	21251	20232.023695404852	0
2	21335	20361.348024552376	1
2	21337	20361.670224613861	2
2	21339	20361.85530623617	3
2	21340	20362.355362002531	2
2	21343	20363.657152846621	1
2	21346	20365.129134182984	0
2	21390	20413.322755491519	1
2	21392	20414.602650961305	2
2	21393	20414.643977853568	1
2	21396	20416.301181721041	0
2	21400	20416.966302100422	1
2	21401	20417.721504538232	0
2	21410	20420.006625881423	1
2	21411	20420.805961060436	0
2	21425	20428.052240568928	1
2	21426	20428.067790266872	0
2	21435	20435.842861900857	1
2	21436	20436.881102877888	0
2	21460	20499.954784941377	1
2	21461	20501.278000877761	0
2	21500	20568.255655226228	1
2	21501	20568.493649642864	0
2	21510	20575.245846406843	1
2	21511	20576.274920670569	0
2	21530	20586.791463419622	1
2	21531	20587.721726101046	0
2	21635	20715.080777295951	1
2	21636	20716.129608238437	0
2	21640	20716.556992138822	1
2	21641	20717.434768459708	0
2	21670	20748.470422837824	1
2	21672	20748.493735114762	2
2	21673	20749.395982020627	1
2	21676	20750.644168856087	0
2	21685	20753.029949797529	1
2	21686	20753.39291027868	0
2	21705	20766.406602417975	1
2	21708	20767.148894543174	0
2	21715	20769.650078144115	1
2	21718	20770.130295696828	0
2	21735	20776.287090056461	1
2	21736	20777.171520104233	0
2	21750	20788.545886876537	1
2	21753	20788.964431029932	0
2	21770	20805.234563908743	1
2	21771	20806.662862525439	0
2	21785	20813.991691566499	1
2	21786	20814.935561124497	0
2	21860	20929.526304544497	1
2	21861	20930.53939753595	0
2	21870	20933.911734200668	1
2	21872	20934.009466145437	2
2	21873	20934.970039290419	1
2	21878	20936.559128621822	0
2	21885	20938.748727882401	1
2	21887	20939.127756154639	2
2	21888	20940.134988666927	1
2	21891	20941.484471293395	0
2	21920	20961.852914335149	1
2	21921	20962.840228858624	0
2	21955	20985.523998544055	1
2	21956	20985.914353363704	0
2	21965	20988.660599274374	1
2	21966	20989.568319364888	0
2	21990	21034.572629314017	1
2	21991	21036.41199376656	0
2	22005	21049.307087868095	1
2	22006	21050.167843524954	0
2	22015	21052.82539332625	1
2	22016	21053.49555530197	0
2	22045	21080.979071251718	1
2	22046	21082.367425147865	0
2	22050	21082.718806490755	1
2	22051	21083.617668193813	0
2	22065	21103.53839717444	1
2	22066	21104.273764201188	0
2	22080	21112.992663063457	1
2	22081	21114.184721536381	0
2	22090	21116.354851596502	1
2	22091	21117.256661223359	0
2	22095	21118.567292307041	1
2	22096	21118.865099601	0
2	22110	21127.357502282068	1
2	22111	21127.740066499979	0
2	22155	21179.121428449362	1
2	22156	21179.34017035325	0
2	22175	21188.618235453038	1
2	22176	21189.701727609315	0
2	22252	21276.653330016647	1
2	22253	21276.758634230408	0
2	22257	21277.46185162923	1
2	22258	21277.993175426598	0
2	22275	21286.527254883461	1
2	22277	21286.945137922129	2
2	22278	21287.201535177687	1
2	22284	21288.075313438761	2
2	22285	21288.731146837482	1
2	22288	21290.275261312993	0
2	22305	21296.808012395886	1
2	22306	21298.361002729292	0
2	22340	21331.887316939048	1
2	22341	21332.550419952376	0
2	22350	21336.563937928547	1
2	22351	21336.917879697852	0
2	22375	21379.719668112097	1
2	22376	21379.942731440795	0
2	22435	21453.469004520111	1
2	22436	21454.141485381141	0
2	22440	21454.40004949135	1
2	22442	21454.709315382356	2
2	22444	21454.902228734127	3
2	22445	21455.440198962032	2
2	22449	21455.996112526684	3
2	22450	21457.12674367839	2
2	22453	21458.874558580867	1
2	22457	21459.241175421155	2
2	22458	21460.103942380301	1
2	22461	21461.804243667997	0
2	22485	21487.388474666304	1
2	22486	21487.703839470956	0
2	22507	21493.787191588757	1
2	22508	21495.208383331073	0
2	22545	21552.307692025503	1
2	22546	21553.014297089054	0
2	22555	21554.760322406313	1
2	22557	21555.288744433385	2
2	22558	21556.455141080812	1
2	22561	21557.917400332995	0
2	22590	21576.735543218121	1
2	22591	21577.465435231334	0
2	22595	21577.906929074751	1
2	22596	21579.076283485858	0
2	22600	21579.417577391843	1
2	22602	21579.904502502231	2
2	22603	21580.454124201877	1
2	22607	21581.853931710243	2
2	22608	21582.202222568771	1
2	22612	21582.283332688074	2
2	22613	21583.410884006178	1
2	22617	21584.193312977892	2
2	22619	21584.381457538287	3
2	22620	21584.641099190382	2
2	22623	21586.630281932881	1
2	22628	21587.939784007003	0
2	22632	21589.09367410958	1
2	22633	21589.371093621147	0
2	22637	21590.622087802042	1
2	22638	21590.848398063188	0
2	22642	21591.212404833499	1
2	22643	21592.183609856521	0
2	22652	21594.457502316606	1
2	22653	21595.440834107851	0
2	22657	21596.134212718701	1
2	22658	21597.327808836145	0
2	22662	21597.676968502319	1
2	22664	21598.630069457087	2
2	22665	21598.639347769176	1
2	22668	21600.46359479711	0
2	22695	21632.933411525473	1
2	22696	21633.943337066733	0
2	22720	21669.985598211242	1
2	22721	21670.504950103395	0
2	22730	21674.161950025838	1
2	22731	21674.185279552617	0
2	22760	21715.896209553129	1
2	22762	21716.430143612957	2
2	22763	21716.746573015683	1
2	22766	21718.359697618902	0
2	22780	21725.31981187403	1
2	22781	21727.140985347943	0
2	22805	21750.881045861743	1
2	22808	21752.084457055811	0
2	22815	21753.784833590892	1
2	22816	21754.663628652092	0
2	22870	21784.959100545867	1
2	22871	21786.078002544399	0
2	22880	21788.367132576347	1
2	22881	21789.356137437094	0
2	22925	21843.253729472234	1
2	22926	21844.086691199193	0
2	22940	21854.796131601252	1
2	22941	21855.053829194703	0
2	22970	21872.58345644668	1
2	22971	21872.607969527743	0
2	22975	21872.635248307108	1
2	22976	21873.971425092644	0
2	23005	21892.424526293718	1
2	23006	21893.670657340552	0
2	23050	21959.100110401148	1
2	23051	21960.683021274731	0
2	23065	21975.984062668759	1
2	23066	21977.396589442486	0
2	23115	22062.900647852056	1
2	23116	22064.407300530626	0
2	23155	22089.054601297397	1
2	23156	22089.169928122802	0
2	23160	22090.242856591856	1
2	23161	22090.758153760365	0
2	23170	22094.263122095771	1
2	23171	22094.543488296946	0
2	23175	22094.600872262878	1
2	23177	22094.85511881235	2
2	23178	22096.434086339628	1
2	23184	22097.834254693764	2
2	23185	22097.86184227754	1
2	23189	22097.889124010167	2
2	23192	22099.815942804037	1
2	23196	22100.907929185064	2
2	23197	22101.627798153168	1
2	23201	22102.804835353222	2
2	23202	22103.479314707114	1
2	23205	22104.729211320064	0
2	23209	22105.030453885089	1
2	23212	22106.049761624902	0
2	23216	22106.178014691583	1
2	23218	22106.453451130911	2
2	23219	22107.833412371285	1
2	23222	22109.446287183918	0
2	23226	22109.620033300678	1
2	23227	22110.824701157853	0
2	23250	22130.984236726159	1
2	23251	22132.17134099886	0
2	23280	22168.282100554794	1
2	23281	22168.482597281659	0
2	23295	22174.642068306773	1
2	23297	22175.971863753476	2
2	23298	22176.276171993981	1
2	23303	22178.002532236981	0
2	23315	22181.65777087782	1
2	23316	22182.633725856574	0
2	23325	22185.474526357609	1
2	23327	22185.678481919255	2
2	23328	22187.235252798374	1
2	23331	22188.969261964808	0
2	23335	22190.590353338805	1
2	23336	22190.834058062943	0
2	23340	22192.235325680178	1
2	23341	22192.441657476524	0
2	23350	22194.885725564204	1
2	23353	22196.174277677766	0
2	23390	22224.982022574944	1
2	23391	22225.936410538343	0
2	23395	22226.289731753473	1
2	23396	22227.631176494112	0
2	23405	22230.546975233783	1
2	23406	22231.591439248714	0
2	23415	22243.227896386273	1
2	23416	22243.804326874999	0
2	23420	22244.683274123247	1
2	23421	22245.687438637068	0
2	23455	22266.170449008881	1
2	23456	22266.38694629173	0
2	23475	22283.900257978283	1
2	23476	22284.749832994778	0
2	23505	22316.219044221758	1
2	23506	22316.799335289469	0
2	23550	22355.659469421332	1
2	23552	22355.749429879958	2
2	23553	22356.960668680883	1
2	23556	22358.635078466936	0
2	23560	22358.859303804865	1
2	23562	22360.039232783272	2
2	23563	22360.225552270069	1
2	23567	22360.537217402822	2
2	23568	22361.725507216594	1
2	23571	22363.322965411349	0
2	23615	22417.525394145256	1
2	23616	22417.670669483286	0
2	23630	22436.058122281971	1
2	23631	22437.086748439176	0
2	23650	22447.737594525086	1
2	23651	22448.273094516782	0
2	23655	22448.682536401182	1
2	23656	22449.692753035551	0
2	23660	22450.446868985197	1
2	23662	22450.899623537043	2
2	23663	22451.571943463547	1
2	23666	22452.883398897735	0
2	23675	22455.953203312655	1
2	23676	22456.330486933868	0
2	23715	22490.714569384586	1
2	23717	22491.252846496173	2
2	23718	22491.596302139956	1
2	23722	22491.763251935836	2
2	23723	22493.380076268512	1
2	23727	22493.97956586613	2
2	23728	22495.093486559588	1
2	23731	22496.834891085337	0
2	23735	22497.387526561648	1
2	23736	22498.197616793412	0
2	23745	22502.017612335475	1
2	23747	22502.193867480708	2
2	23748	22502.37979139956	1
2	23751	22503.960309343695	0
2	23760	22516.02665351132	1
2	23761	22516.548725003811	0
2	23785	22540.301719407688	1
2	23786	22540.619225303393	0
2	23950	22724.88393124485	1
2	23951	22726.184412910784	0
2	23965	22743.626370461451	1
2	23966	22745.023711407791	0
2	23975	22746.960912401672	1
2	23977	22748.551364079352	2
2	23978	22748.693644510258	1
2	23981	22750.162454722684	0
2	23995	22763.929915871499	1
2	23996	22764.484832016447	0
2	24005	22767.96249119757	1
2	24006	22768.571608441882	0
2	24015	22773.541773305534	1
2	24016	22775.09207900923	0
2	24020	22775.487502769773	1
2	24021	22776.539545369263	0
2	24070	22855.481694400824	1
2	24071	22856.671082529878	0
2	24085	22860.611481475996	1
2	24086	22860.97464188011	0
2	24090	22862.624198503865	1
2	24091	22862.633602570459	0
2	24105	22874.075875296019	1
2	24106	22874.181434207613	0
2	24110	22875.875883097498	1
2	24111	22876.133455943333	0
2	24115	22877.084255638634	1
2	24117	22877.52268934001	2
2	24118	22877.653020801039	1
2	24121	22878.935005933808	0
2	24125	22880.009338359904	1
2	24126	22880.707243919948	0
2	24160	22904.553858558089	1
2	24161	22905.60749779386	0
2	24240	22984.21105029589	1
2	24241	22984.830438057923	0
2	24245	22985.731139735474	1
2	24246	22986.715695274652	0
2	24250	22987.142000796569	1
2	24251	22988.594571229846	0
2	24260	22993.66593572911	1
2	24261	22993.880160424591	0
2	24275	23002.373047371891	1
2	24276	23003.264021293279	0
2	24285	23006.604793625809	1
2	24286	23007.217218250896	0
2	24295	23018.98662738914	1
2	24296	23019.616764367822	0
2	24320	23051.349300379427	1
2	24321	23052.412264601809	0
2	24325	23052.593841861077	1
2	24326	23054.228019124192	0
2	24350	23105.933607726928	1
2	24351	23106.550125385432	0
2	24365	23114.634474567742	1
2	24366	23116.000925499508	0
2	24375	23130.382411406911	1
2	24376	23130.711985654677	0
2	24385	23133.876243368027	1
2	24386	23134.943301469692	0
2	24390	23135.554026576034	1
2	24391	23136.314129610219	0
2	24395	23137.376825321882	1
2	24396	23138.064771011145	0
2	24430	23175.433839977788	1
2	24431	23176.37725980037	0
2	24515	23297.010431975812	1
2	24516	23298.624751266469	0
2	24550	23316.080654748498	1
2	24551	23316.243613388512	0
2	24555	23317.414068557454	1
2	24556	23317.725823227625	0
2	24585	23348.866709872208	1
2	24586	23349.46857312669	0
2	24600	23358.023725543865	1
2	24601	23358.125308515649	0
2	24715	23515.72831987844	1
2	24716	23516.652297420137	0
2	24745	23534.28857611002	1
2	24746	23535.226110367926	0
2	24775	23550.892199651137	1
2	24776	23552.199517431164	0
2	24780	23552.254916974676	1
2	24782	23552.468741219536	2
2	24783	23553.995201521421	1
2	24786	23555.237728240768	0
2	24815	23577.124089660021	1
2	24816	23577.688937236798	0
2	24825	23581.162772914178	1
2	24826	23581.246376188156	0
2	24870	23634.745831753407	1
2	24871	23635.219600066226	0
2	24880	23639.943680849322	1
2	24881	23640.334427519086	0
2	24895	23648.967932552096	1
2	24896	23650.235777833878	0
2	24900	23650.62520760041	1
2	24902	23650.676380642933	2
2	24903	23651.717573529675	1
2	24906	23653.574128113321	0
2	24910	23655.355471723752	1
2	24911	23655.512905451103	0
2	24925	23660.351041843652	1
2	24926	23661.738058765733	0
2	24935	23664.005127406258	1
2	24936	23664.461874113359	0
2	24970	23695.992648746684	1
2	24971	23696.585283176835	0
2	24990	23723.767654280828	1
2	24991	23725.086633908437	0
2	25005	23731.829405304546	1
2	25006	23731.935554138914	0
2	25035	23751.493781117773	1
2	25036	23752.482487441534	0
2	25060	23770.172686032251	1
2	25061	23770.746599474781	0
2	25065	23771.982958584779	1
2	25066	23772.323918149666	0
2	25070	23772.376796994139	1
2	25071	23773.999757640482	0
2	25085	23782.340029358186	1
2	25087	23782.592543943228	2
2	25088	23783.381258636899	1
2	25093	23785.131476391665	0
2	25145	23852.893087082044	1
2	25146	23853.309912997484	0
2	25195	23955.07484676622	1
2	25196	23956.198933315784	0
2	25215	23967.772055010878	1
2	25216	23968.098864259997	0
2	25225	23970.331462087573	1
2	25226	23971.44152636568	0
2	25270	24051.665276888457	1
2	25271	24051.7490755977	0
2	25275	24052.214032909117	1
2	25276	24053.365530491237	0
2	25315	24106.888423866444	1
2	25316	24106.922864025395	0
2	25340	24129.676562230699	1
2	25341	24130.06447525161	0
2	25395	24195.6071602902	1
2	25396	24197.254897841761	0
2	25440	24273.436002324902	1
2	25442	24273.47873658358	2
2	25443	24274.063375911939	1
2	25447	24275.184905052957	2
2	25448	24275.835856055732	1
2	25451	24277.486140114705	0
2	25455	24277.635856466692	1
2	25456	24279.331712797361	0
2	25465	24285.726057146486	1
2	25466	24286.922392526562	0
2	25475	24289.496141157436	1
2	25476	24290.726941575142	0
2	25505	24317.370283276548	1
[...]
6	17300	16028.295019219788	1.671271398477
6	17319	16039.028672848907	3.565065120327
6	17375	16080.278631902133	1.255745983869
6	17450	16170.219482590384	1.520079266094
6	17465	16179.484611363066	1.652362699993
6	17520	16251.836759960629	3.142263282429
6	17530	16265.186289037821	1.502127640508
6	17547	16296.417596737811	1.613096878119
6	17557	16309.28019331773	1.677037202567
6	17586	16326.496817045167	2.557556479446
6	17599	16331.674541287004	6.314181953534
6	17602	16333.651468399978	5.32167015796
6	17605	16335.215444688751	12.314479752815
6	17610	16337.263649397554	1.897243157588
6	17635	16366.69117185152	1.720950966701
6	17705	16438.165438978796	2.068329434078
6	17725	16457.772257856852	1.261424710043
6	17750	16498.263349554467	1.829761463776
6	17760	16517.758629493903	1.905402758345
6	17812	16577.254053848797	1.240334649757
6	17815	16578.767500742154	12.221707823108
6	17820	16587.431575319659	1.663813144527
6	17855	16623.954669588002	3.057407720735
6	17860	16639.057295647635	1.362855723128
6	17900	16689.243612897994	1.564420015551
6	17905	16694.416014361568	1.656396631338
6	17939	16734.454829915776	2.111750385326
6	18035	16826.720781932865	4.476871800873
6	18060	16835.98261930258	1.566494860669
6	18110	16915.472644528306	1.879440530576
6	18117	16918.083733562457	1.908545907028
6	18170	16960.998966485378	1.245668071136
6	18190	16988.298056802138	5.947873272937
6	18195	16993.333027810279	1.310402864218
6	18270	17101.502488468204	10.143857850323
6	18290	17127.799117541225	1.819423258863
6	18374	17186.983464978151	4.326793551831
6	18380	17190.154960385598	7.047930615209
6	18425	17234.722974917865	5.817952751129
6	18430	17243.286888929103	1.219377671182
6	18442	17251.20020060513	3.163032992192
6	18470	17277.817370384212	1.707385988161
6	18495	17297.938218404614	4.460860302299
6	18519	17304.746396871244	2.778559571015
6	18522	17306.181111218368	3.637777592894
6	18527	17307.559729073157	4.781817253132
6	18530	17309.073149318022	2.161875106691
6	18535	17324.396621625756	1.229323412478
6	18547	17338.599381121633	2.859352883421
6	18550	17340.417531451223	1.9955059251
6	18630	17404.245925047789	6.833338951511
6	18654	17418.462236974382	7.79757612512
6	18660	17422.100484709063	4.134606911967
6	18675	17428.329486854186	2.34485037244
6	18685	17440.36363584226	1.627039129101
6	18770	17523.677650035253	5.735319337857
6	18775	17534.121906857167	1.652188001014
6	18780	17544.57538481699	1.636517584883
6	18785	17552.501048014352	1.283898285776
6	18825	17613.91148826311	3.609806865391
6	18830	17618.311641807939	1.223827285878
6	18890	17683.408756705633	5.188478822075
6	18897	17685.832174097353	1.644624213316
6	18900	17687.49997197313	2.549181288782
6	18915	17716.846919299149	1.28793722894
6	18920	17725.871832118576	1.38821967449
6	18930	17731.420865927977	2.534938719626
6	19035	17800.184336502363	4.330089076876
6	19040	17802.459052706613	1.691113861836
6	19055	17814.065644912047	1.444815216772
6	19065	17845.351656997111	1.469976000674
6	19105	17877.656042449443	4.845070791177
6	19134	17896.559492161827	1.722415237688
6	19142	17900.334374795997	4.462646903546
6	19165	17922.902368901447	2.532924958025
6	19230	17985.524848930096	1.508066879585
6	19275	18027.119936407472	1.604984823056
6	19300	18054.947642527744	8.880287597319
6	19310	18063.784739488594	1.316111812182
6	19350	18091.702070960302	1.397285936361
6	19375	18125.149864420676	5.858853289363
6	19435	18192.682463711936	4.491060057302
6	19450	18205.078497091912	1.325124696642
6	19485	18231.656922049015	1.653473279625
6	19510	18263.460728148551	1.318338121101
6	19530	18293.186183381998	7.184046592858
6	19552	18309.274078402547	1.970109741017
6	19582	18333.444804614456	1.840919402614
6	19635	18389.30475727688	1.397820739076
6	19652	18407.408647759546	1.850834358111
6	19680	18443.956863621	1.673898268305
6	19700	18459.983581270599	1.302127857134
6	19705	18481.651342525505	1.390940433182
6	19755	18554.100449883224	1.522591674142
6	19815	18649.123089199499	1.45009436477
6	19827	18660.044348313675	1.612628391758
6	19855	18692.366651896066	1.575224766135
6	19887	18724.333853711576	3.677997187958
6	19890	18725.628374577329	1.564316701809
6	19910	18758.905737861626	2.642905345368
6	19920	18766.055964149101	1.884023440673
6	19945	18810.732214808649	1.359136296064
6	19985	18866.384376208836	7.272767822125
6	20005	18902.61924077679	1.415731133148
6	20030	18934.408508251039	1.298757225834
6	20050	18980.364203785237	1.590553630888
6	20100	19014.202967410136	1.598104576766
6	20105	19017.293708988199	1.335619584098
6	20117	19026.354653410272	1.780379798077
6	20122	19027.96898648742	2.105261907689
6	20135	19040.748518390603	6.127765309367
6	20195	19148.216855331671	1.260214506835
6	20210	19186.783796668172	1.961857817508
6	20275	19226.819372555944	1.398319227621
6	20280	19233.334699644779	1.283098316751
6	20365	19319.577863378122	9.877255729734
6	20405	19393.134487764963	1.26428405419
6	20445	19424.685793334102	1.846797266603
6	20475	19458.283857373332	1.20263881404
6	20512	19503.738165189273	1.885392910428
6	20537	19516.401550607064	8.22529887783
6	20550	19528.324963553333	1.542966961488
6	20565	19547.592254858309	1.873971336149
6	20570	19558.279580826509	1.590301961266
6	20595	19580.939282997912	1.839111442305
6	20600	19592.537424500936	1.572808538005
6	20650	19615.690804157524	12.122008492798
6	20755	19726.173888968924	1.308683888987
6	20760	19727.625022302397	1.323093416914
6	20800	19765.254599381948	1.994169741683
6	20815	19783.716340957173	1.704861482233
6	20822	19786.807469170118	1.577248438261
6	20835	19794.920907455796	8.657251220879
6	20880	19844.183939066335	4.585609769861
6	20927	19913.167631912289	1.536516385339
6	20955	19933.562020716082	1.767114597373
6	21015	20034.426774914263	4.404719379397
6	21040	20056.09028962251	7.987088444183
6	21047	20063.080165896951	1.651174403541
6	21092	20090.044905940276	5.746808215685
6	21110	20103.089144961135	3.149325606423
6	21170	20163.540056509822	1.27189216949
6	21210	20203.464725045336	1.548115798831
6	21220	20212.409990430275	1.251490103826
6	21315	20341.824137518731	1.754561703466
6	21375	20396.942137447694	1.38378341943
6	21394	20414.643977853568	1.981791478023
6	21412	20420.805961060436	2.908413693794
6	21485	20522.486386375085	1.469304668531
6	21492	20546.982594570748	1.362524485402
6	21495	20548.56497985576	1.979272033851
6	21512	20576.274920670569	1.796725434437
6	21550	20595.505663599803	1.673340493999
6	21560	20599.351740441056	2.96091694342
6	21565	20605.269290503306	1.360554227419
6	21595	20652.05447754987	1.719707993977
6	21620	20704.664516036633	2.903754899547
6	21630	20711.83387714679	1.296406060457
6	21650	20721.56339037953	1.720753822289
6	21667	20747.667216887045	1.550083894096
6	21695	20756.286283132898	11.617468557204
6	21729	20773.713737763438	3.976541178537
6	21732	20775.191214078452	9.290082359873
6	21737	20777.171520104233	10.07032408883
6	21760	20792.720444349015	4.055968094885
6	21787	20814.935561124497	1.210974252596
6	21840	20889.865792572521	1.836490059458
6	21845	20896.783741943227	1.262043764442
6	21850	20913.220543900198	1.293761926889
6	21889	20940.134988666927	4.262593838159
6	21900	20944.647794697476	3.110037159494
6	21905	20946.191287071598	1.296627485752
6	21950	20983.522182146201	1.5129474096
6	21957	20985.914353363704	6.507096447771
6	21992	21036.41199376656	3.937452459213
6	22000	21046.093163763182	1.276978372782
6	22017	21053.49555530197	5.222652051039
6	22047	21082.367425147865	2.789021382889
6	22082	21114.184721536381	1.424279846437
6	22135	21154.498817209638	1.8459822651
6	22140	21156.395159427644	1.281620049104
6	22157	21179.34017035325	1.886219367571
6	22194	21193.99056042114	7.994406543363
6	22197	21195.493694487565	3.043549533087
6	22200	21197.480857846678	6.979181259331
6	22225	21238.935821550879	2.051935074036
6	22265	21281.064984664793	5.406277730741
6	22307	21298.361002729292	10.506507338656
6	22320	21309.688840093797	1.492762224935
6	22330	21314.259282374974	2.426700726557
6	22360	21358.909617948936	1.426733664423
6	22365	21364.51314415006	1.286006633937
6	22412	21418.247832869525	1.975023481809
6	22415	21419.599952950115	2.661921476729
6	22515	21498.703668296893	13.049508033307
6	22520	21502.400462330285	9.409217539491
6	22540	21548.198029645288	1.39001673907
6	22547	21553.014297089054	1.200925857946
6	22575	21569.328845667533	2.686944959057
6	22585	21574.923116108617	4.027066447011
6	22654	21595.440834107851	7.522727750394
6	22675	21603.401685873835	9.108932827686
6	22715	21661.765234146311	3.357326105245
6	22800	21749.318624139458	1.563757414743
6	22809	21752.084457055811	1.448360257037
6	22817	21754.663628652092	3.410700083825
6	22855	21773.376906066478	1.408332410641
6	22882	21789.356137437094	1.76844620894
6	22895	21799.820626413407	2.612454303306
6	22907	21818.30892878253	1.67105314061
6	22910	21820.271163128354	2.943063248193
6	22935	21852.809234126025	1.792207682878
6	22950	21858.875754769334	1.775573807023
6	22960	21869.171973836208	1.300292858854
6	22972	21872.607969527743	3.312596864738
6	23015	21897.590456105234	1.335020210594
6	23045	21949.649897591663	5.174481636679
6	23097	22019.600515972968	4.296785983077
6	23100	22021.46892373297	2.225900915427
6	23145	22081.14443550148	1.902356502973
6	23150	22084.536494864516	1.978310303204
6	23157	22089.169928122802	1.798058342002
6	23234	22113.712429694727	17.085543761169
6	23237	22115.612769830681	16.044435243358
6	23240	22117.416401671141	12.127844285325
6	23260	22135.489322622346	5.296769524739
6	23312	22181.318298189858	4.421467888864
6	23317	22182.633725856574	3.450369820062
6	23360	22198.71940633767	2.810349031733
6	23385	22224.088626673832	1.932955596223
6	23495	22307.950148942511	1.884864597581
6	23515	22320.208264808079	2.280598457028
6	23530	22326.737227504795	5.516751725376
6	23580	22367.406144952055	1.491978180408
6	23690	22466.706658165652	3.353319049785
6	23705	22486.995914156979	3.748152019768
6	23749	22502.37979139956	1.958261935972
6	23800	22546.978881669465	2.563731601058
6	23810	22558.597999967201	5.200728203954
6	23815	22561.71488596786	1.8397433687
6	23850	22603.300038685942	1.864910315722
6	23855	22608.473397616764	1.701337099262
6	23880	22626.989690563393	1.51835552752
6	23932	22717.13691535338	1.984026176482
6	23945	22724.340888793061	8.101212354233
6	23979	22748.693644510258	6.930397851006
6	24055	22843.283211486922	1.53576285243
6	24072	22856.671082529878	1.445780911483
6	24135	22887.15695214591	1.461622517556
6	24145	22892.99005790893	1.810071529979
6	24150	22894.907114098128	1.610075821728
6	24192	22919.285561916907	2.967395364396
6	24195	22921.072891135257	5.761665743781
6	24200	22924.138475609622	1.229193775542
6	24270	22997.430409739458	5.469044919498
6	24310	23038.665745719059	3.051327532609
6	24335	23057.529570972284	1.914698738227
6	24377	23130.711985654677	1.670307075605
6	24410	23154.779947889411	1.274388008565
6	24427	23175.172425520766	1.387924366147
6	24432	23176.37725980037	3.889513081312
6	24485	23272.102318508988	1.822796277143
6	24505	23286.855120042348	2.022939523451
6	24525	23301.168983756568	4.482911653257
6	24530	23304.473194093229	1.553263473697
6	24542	23311.502403172687	1.668834859692
6	24545	23312.785100722336	1.666118066583
6	24580	23336.361565986206	1.681559266336
6	24587	23349.46857312669	1.347501937859
6	24615	23374.615997376002	1.905141071416
6	24630	23407.176343870518	1.598500766419
6	24675	23459.496291775543	1.927996624634
6	24700	23505.444739816224	1.970688890666
6	24710	23513.674704175143	3.076495781837
6	24747	23535.226110367926	1.395203531906
6	24805	23573.496031075017	1.387080783397
6	24827	23581.246376188156	5.899381526823
6	24882	23640.334427519086	1.483824988082
6	24937	23664.461874113359	1.536205708889
6	24980	23700.356144638668	1.463965806738
6	25025	23739.431979069298	2.535711107556
6	25050	23757.683520041116	2.496133079774
6	25100	23788.071766487694	6.465680354274
6	25140	23844.803278216563	1.27365139015
6	25185	23946.317560198137	1.211829628982
6	25325	24119.644991995404	1.850091462582
6	25360	24146.591535430553	3.385470859276
6	25397	24197.254897841761	1.991720725782
6	25415	24225.268364918702	1.492225055397
6	25425	24234.587371074703	1.27272347454
6	25477	24290.726941575142	1.692761377245
6	25495	24305.105782756183	2.39674220048
6	25535	24347.263092529128	1.304421075806
6	25610	24403.120898289547	1.970405137166
6	25655	24485.703432792777	1.278808263503
6	25665	24502.278373643326	1.551005368307
6	25722	24562.054277304043	1.971964102238
6	25735	24570.723559964187	1.335518053174
6	25740	24592.091557723446	1.960419613495
6	25745	24595.518834983599	1.281456442177
6	25759	24602.376432868658	1.772852468304
6	25765	24605.409397986724	4.270458702063
6	25775	24625.705967864551	1.31509796977
6	25810	24677.491784208431	1.519580753893
6	25892	24722.67064401443	1.270737333968
6	25915	24743.067596003306	1.931249500997
6	25927	24748.769035853564	1.991127387062
6	25937	24770.569054961315	1.333659764007
6	25940	24772.306217568851	2.164953118016
6	25954	24777.083019903796	2.469258800463
6	26002	24817.31267019053	7.725645539113
6	26005	24818.863070831159	10.305885951388
6	26060	24861.66138475032	6.155588608872
6	26070	24892.415667121692	1.974101633392
6	26110	24959.36625063761	1.407461188734
6	26130	24992.720064064634	1.40454919599
6	26140	24997.177879096223	2.412094054078
6	26145	25010.041223294282	1.571944126859
6	26159	25013.370702633576	1.630408907367
6	26220	25037.199817885422	4.730965025966
6	26225	25046.511154520443	1.418580208346
6	26330	25178.001334826164	1.861328072287
6	26352	25185.273730344443	2.852662551996
6	26380	25202.439960358816	1.590006698295
6	26402	25210.448956096665	1.648111398518
6	26465	25273.51625409732	1.20147557538
6	26545	25378.884596941564	1.912342316285
6	26595	25428.79460148558	6.620128902589
6	26660	25521.548819386702	7.770950718841
6	26679	25549.57187668144	1.314447233267
6	26695	25556.525160196423	4.839397739266
6	26730	25587.627344711806	6.615735004261
6	26767	25607.989673032456	4.646313670169
6	26770	25609.985653970607	5.402681507127
6	26830	25695.244939341495	1.723070879839
6	26867	25721.019694603517	2.778666547767
6	26870	25722.927307134032	10.194733528355
6	26905	25739.069155301571	8.315815649319
6	26910	25741.069218643513	11.896408191595
6	26942	25766.154003698561	1.627988553606
6	26965	25799.86803176115	1.284020668641
6	27012	25870.014824622745	1.89083057642
6	27032	25876.565370147737	2.194859922517
6	27055	25896.061411987105	3.556599433326
6	27062	25901.504259075243	1.549868739583
6	27120	25947.195272359786	1.336945248395
6	27155	26003.96364545075	1.365036571212
6	27204	26033.853540033858	6.352453799962
6	27210	26036.899907772254	4.798762476727
6	27235	26053.87373978671	1.952275481634
6	27245	26061.903432753788	1.83455434572
6	27260	26080.090770700912	1.741786991991
6	27280	26101.169395672569	1.379111597873
6	27315	26145.831117482228	3.045217114179
6	27352	26178.700447290924	1.812624562718
6	27361	26180.627270793703	2.176553799572
6	27380	26188.138548331496	7.670378965868
6	27385	26190.600774583994	1.415519363619
6	27392	26193.476937830131	1.48256397415
6	27405	26201.197532558451	1.255017549731
6	27600	26376.586883821314	2.563441391174
6	27627	26396.862215634798	1.672367933951
6	27707	26473.235910781379	1.800118221156
6	27710	26475.167983540426	3.287009237344
6	27800	26564.570587053542	1.313903567009
6	27810	26599.116069357909	1.275907983817
6	27837	26618.57795565273	5.961940367614
6	27840	26620.273263694303	8.086322483048
6	27892	26728.030998268769	2.267301302847
6	27895	26729.32321724356	1.909152815975
6	27930	26784.435879346299	3.388604938158
6	27937	26788.978220127766	1.570636578463
6	27972	26805.259318018621	8.63567168688
6	27985	26818.083357955829	3.923152328205
6	28010	26842.393353901943	2.015894801844
6	28020	26874.343748340329	1.638656286895
6	28095	26927.552761904464	1.534580044262
6	28155	26981.498335025834	4.810098878096
6	28200	27017.567181390828	1.922972567193
6	28215	27031.409138914348	5.240060636001
6	28255	27060.056134251964	2.830743104001
6	28265	27064.878579803116	9.387015664828
6	28320	27119.066306394867	1.945631292835
6	28355	27176.056450187794	1.778809420578
6	28390	27231.979701360807	1.510225655138
6	28417	27257.822321033793	1.948998761203
6	28435	27274.964211932278	1.800834087096
6	28460	27327.534335941517	1.668125882372
6	28490	27361.496014306538	4.242022986141
6	28505	27378.738801374111	1.816557571292
6	28537	27406.641194372004	4.479625283517
6	28540	27408.149633686928	2.055434554183
6	28545	27409.772622800505	1.460337282345
6	28594	27440.401615342639	1.838690612651
6	28600	27443.336554797321	3.733104145333
6	28615	27448.979839511974	1.224845570698
6	28652	27484.842556089134	9.04420314672
6	28672	27498.123589737195	1.973536365852
6	28705	27529.171831587634	3.513187467018
6	28710	27536.884405513228	1.509388869256
6	28737	27548.341413271853	6.184117949283
6	28752	27563.014258466593	1.930795816332
6	28775	27577.889814560178	2.732977228335
6	28795	27617.165879429653	1.3427479662
6	28842	27667.989060283205	1.32504592035
6	28855	27680.485379607297	1.699530726857
6	28905	27715.933388625633	1.832971850224
6	28932	27736.229995440742	2.471598847997
6	29002	27762.049282214852	4.243373028283
6	29010	27766.943181275664	5.659095270601
6	29045	27792.372100450748	9.298462078278
6	29150	27893.604936885276	1.840617528372
6	29155	27897.34249559153	1.539210719243
6	29190	27942.30593309649	3.608541128434
6	29205	27949.898717877075	2.964230462624
6	29217	27957.699154982706	2.452575633885
6	29240	27971.213468475124	2.874247498858
6	29275	27990.072463897448	8.829381525342
6	29340	28038.368933226956	2.674337956397
6	29495	28198.533544421351	1.380652133748
6	29502	28217.019292279329	1.290216451511
6	29520	28240.182367124582	1.22418168392
6	29527	28254.231181617814	1.223857077025
6	29542	28264.824377906712	1.715546141379
6	29580	28303.329856006819	1.81447623577
6	29605	28313.282292453175	7.640139368187
6	29612	28315.338295464123	1.977454219945
6	29617	28316.975583075265	8.293560218959
6	29625	28321.197920735147	1.533701063693
6	29641	28325.470525468639	1.786489615403
6	29650	28330.26107126934	5.289283301253
6	29705	28379.116037227182	3.686869361902
6	29712	28389.43644440732	1.40019632671
6	29752	28410.856037407425	1.925236340884
6	29797	28453.53419372369	1.445967460051
6	29860	28549.927642434962	5.6583844374
6	29865	28552.908459016978	1.995314662158
6	29965	28632.627278742429	2.83943484611
6	30024	28696.045861481012	6.881120500652
6	30080	28721.036886196728	1.662421108969
6	30125	28771.107704265031	6.188524088327
6	30130	28779.068547275919	1.846650301479
6	30160	28815.298394267834	3.744021517511
6	30172	28832.540298369361	1.827612790652
6	30205	28857.728754621296	6.233190402691
6	30279	28899.593214104611	6.54936467406
6	30285	28903.40529363929	6.292485786641
6	30312	28949.171188888149	1.58865469005
6	30337	28963.128355222978	3.673713565699
6	30410	29032.546924143314	2.879773790508
6	30430	29043.727456973639	1.253777407482
6	30435	29047.093611348982	6.726096896376
6	30467	29102.251786670521	1.883781466633
6	30480	29120.404622347008	1.885769968666
6	30517	29151.667459769919	2.118085561156
6	30520	29153.046540029346	5.197131441866
6	30575	29194.667929572633	7.910690079444
6	30605	29243.64633692012	1.828282590499
6	30612	29247.864623956988	1.756460442767
6	30640	29283.539737678953	1.743054527417
6	30686	29329.464291799328	1.315716003254
6	30697	29334.201556758842	4.997515383231
6	30780	29428.446769633249	1.93639350459
6	30919	29567.608008987202	1.401994100399
6	30929	29570.136054571463	3.780815523987
6	30935	29573.360950902036	4.975860738099
6	30940	29585.078947157261	1.866971833073
6	30952	29595.589496173055	1.514804957435
6	31065	29673.164651744008	1.369966157526
6	31112	29718.046039235051	8.703322989677
6	31135	29764.285454461143	1.738266685419
6	31150	29774.342423849609	3.058003420952
6	31235	29857.075769495515	1.540902831964
6	31252	29870.884329339706	1.912998814508
6	31255	29872.22326291281	2.78777344475
6	31282	29895.947714604905	7.999355055327
6	31345	29939.077639680876	1.891017093509
6	31367	29971.3253048441	1.670826097392

