version 2
run Third_exit_9-12-20191114-11:43:08-9063
attr configname Third_exit_9
attr datetime 20191114-11:43:08
attr experiment Third_exit_9
attr inifile omnetpp.ini
attr iterationvars ""
attr iterationvarsf ""
attr measurement ""
attr network ResponseTimeNetwork
attr processid 9063
attr repetition 12
attr replication #12
attr resultdir results
attr runnumber 12
attr seedset 12
param **.Source.interArrivalTime exponential(6s)
param **.jobPriority bernoulli(0.8)
param **.PS.serviceTimeU1 "uniform(1.2s, 2.0s)"
param **.PS.serviceTimeU2 "uniform(2.4s, 2.8s)"
param **.SS1.serviceTime exponential(1.4s)
param **.SS2.serviceTime exponential(2s)
param **.PS.exitProbability bernoulli(0.9)

vector 0 ResponseTimeNetwork.QueueU1 queueLength:vector ETV
attr interpolationmode sample-hold
attr title "queue length, vector"
vector 1 ResponseTimeNetwork.SS1 queueLength:vector ETV
attr interpolationmode sample-hold
attr title "queue length, vector"
vector 2 ResponseTimeNetwork.QueueU2 queueLength:vector ETV
attr interpolationmode sample-hold
attr title "queue length, vector"
vector 3 ResponseTimeNetwork.sink lifeTimeU1:vector ETV
attr interpolationmode none
attr title "lifetime of arrived jobs U1, vector"
attr unit s
vector 4 ResponseTimeNetwork.sink totalServiceTimeU1:vector ETV
attr interpolationmode none
attr title "the total time spent  by arrived jobs U1, vector"
attr unit s
vector 5 ResponseTimeNetwork.sink lifeTime:vector ETV
attr interpolationmode none
attr title "lifetime of arrived jobs, vector"
attr unit s
vector 6 ResponseTimeNetwork.sink totalServiceTime:vector ETV
attr interpolationmode none
attr title "the total time spent  by arrived jobs, vector"
attr unit s
0	33146	10000.09098941799	678
0	33147	10001.442147198804	677
0	33150	10003.131619432308	676
0	33154	10003.434838086252	677
0	33156	10003.573753339513	678
0	33158	10003.791747077314	679
0	33160	10003.968276076245	680
0	33161	10005.028945412971	679
0	33165	10005.690412620557	680
0	33167	10005.878386936561	681
0	33169	10006.355542347061	682
0	33170	10006.789365621954	681
0	33174	10007.64504513571	682
0	33175	10008.244641117677	681
0	33178	10009.934235547595	680
0	33181	10011.730267817639	679
0	33185	10012.545835794286	680
0	33187	10012.673362017331	681
0	33188	10013.282082898654	680
0	33192	10013.472424041161	681
0	33194	10014.28340853417	682
0	33196	10015.069685383758	683
0	33197	10015.242912237458	682
0	33200	10016.533019852564	681
0	33203	10018.09484339796	680
0	33207	10019.51351796494	681
0	33208	10019.696668328084	680
0	33212	10019.807309408743	681
0	33214	10020.567462174236	682
0	33215	10021.22454666283	681
0	33218	10022.931496795006	680
0	33222	10023.675574783952	681
0	33225	10024.716795856431	680
0	33229	10025.33594874835	681
0	33231	10025.943770528878	682
0	33232	10026.288264238015	681
0	33235	10027.646639087536	680
0	33239	10028.268146562291	681
0	33241	10028.93162323857	682
0	33243	10028.950035867547	683
0	33245	10029.265649754689	684
0	33246	10029.625234117844	683
0	33250	10029.712077622698	684
0	33251	10030.980011921116	683
0	33255	10031.469337922484	684
0	33257	10031.632220853154	685
0	33258	10032.44483881902	684
0	33262	10033.392702180693	685
0	33263	10033.912407098823	684
0	33266	10035.562077714615	683
0	33269	10036.929290563725	682
0	33272	10038.78007976573	681
0	33276	10038.796356876954	682
0	33277	10040.324118214585	681
0	33281	10041.304316902404	682
0	33283	10041.314261259449	683
0	33284	10041.634513106123	682
0	33287	10043.299473933615	681
0	33291	10044.45825076518	682
0	33292	10045.155457580574	681
0	33296	10045.514400316882	682
0	33297	10046.671984587163	681
0	33301	10047.316131578378	682
0	33302	10048.319732190594	681
0	33305	10049.977742001712	680
0	33309	10050.405481727635	681
0	33310	10051.839987197816	680
0	33314	10051.865763318039	681
0	33316	10052.874248346702	682
0	33317	10053.673209700845	681
0	33320	10055.024900497794	680
0	33323	10056.423410565704	679
0	33327	10057.28420299222	680
0	33328	10057.734182101786	679
0	33332	10057.815520894461	680
0	33333	10058.976557217836	679
0	33337	10059.31808043692	680
0	33339	10059.893229024978	681
0	33340	10060.350493113249	680
0	33344	10060.795908636187	681
0	33346	10061.064619853162	682
0	33348	10061.28899836185	683
0	33350	10061.596614977907	684
0	33351	10061.630259789265	683
0	33355	10061.782368307447	684
0	33356	10062.840104496031	683
0	33359	10064.424863013177	682
0	33363	10065.155699600909	683
0	33365	10066.314080529275	684
0	33366	10066.398215815536	683
0	33369	10067.657223234064	682
0	33372	10069.224591971858	681
0	33376	10069.69130948286	682
0	33377	10070.540709509438	681
0	33381	10071.319960041947	682
0	33383	10071.654893184273	683
0	33384	10072.140306570305	682
0	33387	10073.432039810269	681
0	33390	10075.164799680485	680
0	33394	10075.736750221249	681
0	33396	10076.013195885149	682
0	33397	10077.131283076777	681
0	33401	10078.210575383581	682
0	33402	10078.615249289124	681
0	33405	10080.041884241922	680
0	33409	10080.12043319204	681
0	33410	10081.395185406244	680
0	33414	10081.592517939263	681
0	33416	10082.334653333923	682
0	33418	10082.644467460476	683
0	33419	10083.177683087176	682
0	33423	10084.321273187368	683
0	33424	10085.102472720592	682
0	33428	10085.267274822392	683
0	33430	10085.497975041436	684
0	33432	10085.783713693501	685
0	33433	10086.600735324545	684
0	33437	10086.780689642691	685
0	33441	10087.922765029291	686
0	33442	10088.002203155792	685
0	33446	10088.239391228418	686
0	33447	10089.833575300983	685
0	33451	10090.413836934843	686
0	33452	10091.317201255931	685
0	33456	10091.81134790441	686
0	33457	10092.657776082417	685
0	33461	10093.525117802019	686
0	33462	10093.906184582708	685
0	33466	10094.943560869493	686
0	33467	10095.404693202039	685
0	33471	10096.001754833323	686
0	33472	10096.661688366828	685
0	33475	10098.520735580397	684
0	33478	10100.251857722846	683
0	33481	10101.576404651922	682
0	33485	10102.323758455664	683
0	33486	10102.831580308002	682
0	33489	10104.750305224877	681
0	33492	10106.243219193366	680
0	33495	10108.105360447165	679
0	33498	10109.312698040825	678
0	33502	10110.303553033408	679
0	33503	10110.63252981763	678
0	33506	10111.987700001818	677
0	33509	10113.438961690214	676
0	33513	10114.342798614303	677
0	33514	10114.682770247121	676
0	33518	10114.797471959885	677
0	33520	10115.970399613265	678
0	33521	10116.32354974888	677
0	33524	10117.598813533333	676
0	33528	10117.948055085694	677
0	33529	10119.366926034649	676
0	33533	10119.905092795947	677
0	33534	10121.072699548227	676
0	33538	10121.829528143929	677
0	33539	10122.690208442618	676
0	33543	10122.690891143197	677
0	33545	10124.32973222941	678
0	33546	10124.393932172579	677
0	33549	10126.302600075786	676
0	33553	10126.770443993681	677
0	33555	10127.440204342808	678
0	33556	10127.795353703124	677
0	33559	10129.049996517522	676
0	33563	10129.089339520533	677
0	33565	10129.352033908833	678
0	33568	10130.614800083374	677
0	33572	10130.655033942986	678
0	33574	10130.755250301637	679
0	33575	10132.019327287485	678
0	33579	10132.414496964236	679
0	33581	10133.078272340328	680
0	33583	10133.496129306599	681
0	33584	10133.622610860054	680
0	33587	10135.541128136512	679
0	33591	10135.825359973164	680
0	33593	10136.880545448097	681
0	33594	10136.986027322631	680
0	33600	10138.61684827337	681
0	33601	10138.671876881007	680
0	33604	10139.873787679259	679
0	33608	10140.682850659008	680
0	33610	10140.819574853441	681
0	33611	10141.621463856954	680
0	33615	10141.888248036195	681
0	33616	10143.598013490919	680
0	33619	10145.048817300532	679
0	33623	10145.060808289244	680
0	33625	10146.519460237811	681
0	33626	10146.653988755789	680
0	33630	10147.002839553989	681
0	33631	10148.337559652623	680
0	33635	10148.502041569269	681
0	33636	10149.973225928951	680
0	33640	10150.735961966017	681
0	33641	10151.604850753505	680
0	33645	10152.463100050346	681
0	33647	10153.418463803756	682
0	33648	10153.493342972283	681
0	33652	10153.655156159469	682
0	33654	10153.856457685727	683
0	33656	10155.013891272784	684
0	33657	10155.336575593536	683
0	33661	10156.326185386965	684
0	33662	10156.823726479446	683
0	33666	10157.842322880921	684
0	33667	10158.374160812718	683
0	33671	10159.154197136479	684
0	33673	10159.513530576864	685
0	33674	10159.999689833556	684
0	33677	10161.47808695614	683
0	33683	10162.822578666018	684
0	33685	10162.930545268399	685
0	33686	10163.011803215292	684
0	33689	10164.441526041102	683
0	33692	10165.982371262011	682
0	33695	10167.308639992137	681
0	33699	10168.109735782561	682
0	33701	10168.211346900231	683
0	33702	10169.030393897478	682
0	33706	10169.088630918153	683
0	33707	10170.468607415367	682
0	33711	10172.192640315241	683
0	33712	10172.227297861982	682
0	33716	10172.30223696335	683
0	33718	10172.854726706094	684
0	33720	10173.340442833323	685
0	33722	10173.945349149238	686
0	33723	10174.082854864109	685
0	33727	10174.309972930831	686
0	33728	10175.823253579918	685
0	33731	10177.223634403679	684
0	33735	10178.230560828078	685
0	33736	10178.590371635105	684
0	33739	10180.168937561396	683
0	33743	10180.59042301699	684
0	33745	10181.26213431193	685
0	33747	10182.004708268415	686
0	33748	10182.103809854868	685
0	33752	10182.146885559036	686
0	33754	10183.084216360069	687
0	33755	10183.559503240618	686
0	33759	10183.866498583889	687
0	33761	10184.981680156735	688
0	33762	10185.538539324063	687
0	33766	10186.836584892667	688
0	33768	10186.953397062441	689
0	33769	10187.203961809832	688
0	33772	10188.854015669893	687
0	33776	10188.951449100931	688
0	33778	10188.952307985169	689
0	33779	10190.839983102601	688
0	33783	10191.667282603579	689
0	33784	10192.486773730736	688
0	33787	10193.923968908299	687
0	33791	10194.300086503828	688
0	33792	10195.149917519946	687
0	33796	10195.494622543087	688
0	33798	10196.766635860281	689
0	33799	10197.051241704557	688
0	33803	10198.794353356783	689
0	33804	10198.814936865229	688
0	33807	10200.681591233346	687
0	33811	10201.403918815298	688
0	33812	10202.279347539055	687
0	33816	10203.224347673963	688
0	33817	10204.026355454619	687
0	33820	10205.40074034139	686
0	33823	10207.180704794186	685
0	33829	10207.468816661994	686
0	33830	10208.397388331885	685
0	33834	10208.486267696416	686
0	33835	10209.903242192524	685
0	33839	10209.994894469314	686
0	33841	10210.716578076452	687
0	33842	10211.816659579346	686
0	33846	10212.430560798142	687
0	33847	10213.341354941683	686
0	33851	10213.42300126222	687
0	33854	10215.296470383475	686
0	33857	10216.771345834541	685
0	33860	10218.671344942148	684
0	33864	10219.406849231628	685
0	33866	10220.033228028147	686
0	33868	10220.054813810499	687
0	33869	10220.188800870921	686
0	33873	10221.55202106635	687
0	33874	10221.885025083009	686
0	33878	10222.123577094543	687
0	33879	10223.702746761139	686
0	33883	10224.043602301763	687
0	33884	10224.904702415984	686
0	33888	10225.256963978524	687
0	33889	10226.246116381805	686
0	33892	10227.86856952339	685
0	33897	10229.737311094176	684
0	33900	10231.581365985718	683
0	33904	10232.33661661633	684
0	33906	10232.558248440677	685
0	33908	10232.985226008957	686
0	33910	10233.453123001239	687
0	33911	10233.572103531767	686
0	33915	10234.993028868845	687
0	33916	10234.993611277376	686
0	33920	10235.428577767163	687
0	33921	10236.592016945329	686
0	33925	10236.600874843271	687
0	33926	10237.836215380315	686
0	33930	10237.964200595571	687
0	33932	10238.602938971471	688
0	33934	10239.073846193396	689
0	33935	10239.276705085036	688
0	33939	10239.314786636889	689
0	33940	10241.111850303148	688
0	33943	10242.878619890769	687
0	33947	10243.369172956721	688
0	33948	10244.167760835697	687
0	33951	10246.119616068822	686
0	33955	10247.084399811105	687
0	33957	10247.458974896689	688
0	33958	10247.614231547636	687
0	33962	10247.718723619962	688
0	33964	10248.718126406972	689
0	33966	10249.211093539212	690
0	33967	10249.428310158399	689
0	33970	10250.876337921542	688
0	33974	10250.902766141019	689
0	33975	10252.32090556353	688
0	33979	10252.455273557995	689
0	33981	10253.092566081841	690
0	33982	10254.015576969754	689
0	33986	10254.022762785895	690
0	33987	10255.97114367589	689
0	33991	10256.193904777992	690
0	33993	10256.737557368821	691
0	33994	10257.634815865305	690
0	33997	10259.371855350879	689
0	34001	10260.634809557089	690
0	34002	10261.286904723306	689
0	34006	10261.918731390851	690
0	34007	10263.175902640556	689
0	34010	10264.498053833765	688
0	34013	10265.705062759404	687
0	34016	10267.642371897508	686
0	34020	10268.766047680422	687
0	34021	10268.983401523267	686
0	34024	10270.358744348695	685
0	34028	10271.193121645689	686
0	34030	10271.527130530828	687
0	34032	10271.966171779362	688
0	34033	10272.323626778943	687
0	34036	10273.553623398875	686
0	34040	10273.673902685776	687
0	34042	10273.916240753891	688
0	34043	10275.48847897548	687
0	34046	10276.995893710961	686
0	34050	10277.388482226645	687
0	34051	10278.369643117969	686
0	34055	10278.616116552654	687
0	34056	10279.604686727484	686
0	34060	10280.213841822154	687
0	34061	10280.862949094286	686
0	34065	10281.916297566492	687
0	34066	10282.692990261985	686
0	34070	10283.886397477827	687
0	34072	10284.196899799547	688
0	34073	10284.395981642714	687
0	34077	10285.161261155858	688
0	34078	10286.371359720191	687
0	34082	10287.534151783954	688
0	34083	10288.049999567604	687
0	34087	10289.52522499553	688
0	34088	10289.6625806614	687
0	34092	10290.117585476164	688
0	34094	10291.307435353317	689
0	34095	10291.447956740781	688
0	34099	10292.170022274151	689
0	34101	10292.532331178054	690
0	34102	10293.378390943743	689
0	34106	10293.745702925516	690
0	34107	10294.947401781119	689
0	34111	10295.279420782404	690
0	34112	10296.787516069151	689
0	34116	10297.720886539828	690
0	34118	10298.594538564847	691
0	34119	10298.658192367963	690
0	34122	10300.420122627466	689
0	34125	10301.779759094044	688
0	34129	10302.487036468694	689
0	34130	10303.168616730272	688
0	34134	10303.839971844571	689
0	34136	10304.147728222098	690
0	34137	10304.641359508707	689
0	34141	10305.739129992276	690
0	34142	10306.371394658758	689
0	34147	10308.008747117704	688
0	34150	10309.86751531951	687
0	34153	10311.132106117642	686
0	34157	10311.477172140714	687
0	34159	10312.058405299897	688
0	34160	10312.391486790328	687
0	34163	10313.996945565677	686
0	34166	10315.780872913188	685
0	34170	10316.301690284607	686
0	34172	10316.753873483356	687
0	34174	10316.894702752652	688
0	34175	10317.550512252113	687
0	34179	10317.807657666108	688
0	34181	10318.003592011706	689
0	34182	10319.252054592705	688
0	34186	10320.00423620889	689
0	34188	10320.746623312685	690
0	34189	10320.960543472989	689
0	34193	10321.508190543584	690
0	34195	10321.517889882793	691
0	34197	10321.648687212376	692
0	34198	10322.219367942511	691
0	34202	10322.405418821561	692
0	34203	10323.77115609601	691
0	34207	10324.025549662795	692
0	34210	10325.678543385042	691
0	34214	10326.854838280725	692
0	34215	10326.971824755257	691
0	34219	10328.343690906011	692
0	34220	10328.51500897344	691
0	34224	10328.551855395467	692
0	34225	10329.820634418836	691
0	34228	10331.580887458211	690
0	34231	10332.972417143284	689
0	34234	10334.470316232106	688
0	34238	10334.508459484905	689
0	34240	10334.828297562359	690
0	34242	10335.223040728389	691
0	34243	10335.850953420921	690
0	34247	10336.574627614078	691
0	34249	10337.026703248409	692
0	34250	10337.646811773366	691
0	34253	10339.173527609667	690
0	34257	10339.591061816472	691
0	34258	10340.761887678614	690
0	34262	10340.945605218231	691
0	34263	10342.658423029183	690
0	34267	10342.99932164511	691
0	34268	10343.930651345959	690
0	34272	10344.641904426942	691
0	34273	10345.654925944766	690
0	34277	10345.750701618677	691
0	34279	10346.002582362338	692
0	34281	10346.299785433945	693
0	34282	10346.950456683634	692
0	34286	10347.665057075091	693
0	34287	10348.738138414657	692
0	34291	10349.280860487131	693
0	34292	10350.2431393617	692
0	34295	10351.805143591685	691
0	34298	10353.405631555913	690
0	34301	10354.702541293314	689
0	34305	10355.537248508008	690
0	34307	10355.959838105115	691
0	34308	10356.637196336052	690
0	34312	10356.719450233089	691
0	34314	10356.884748377607	692
0	34316	10357.333912474122	693
0	34317	10358.529121291562	692
0	34321	10360.029410816661	693
0	34322	10360.065012719593	692
0	34325	10361.87288488794	691
0	34328	10363.861068135983	690
0	34332	10364.526679270681	691
0	34333	10365.110442291497	690
0	34337	10365.510294395556	691
0	34339	10365.667077372717	692
0	34341	10365.704367296671	693
0	34343	10366.640473248288	694
0	34344	10367.078653096704	693
0	34348	10368.306704344154	694
0	34349	10369.069704602396	693
0	34353	10370.384091087901	694
0	34354	10370.459919167606	693
0	34358	10371.276710087303	694
0	34362	10371.813353778174	695
0	34363	10372.441107625997	694
0	34366	10373.832452572247	693
0	34369	10375.386139588354	692
0	34375	10376.513618906765	693
0	34377	10376.743839480593	694
0	34378	10377.32126813486	693
0	34382	10378.459473552218	694
0	34383	10378.91654183354	693
0	34387	10379.314912708147	694
0	34388	10380.762059287836	693
0	34392	10380.991622790776	694
0	34396	10381.505133151977	695
0	34397	10382.294224149284	694
0	34401	10384.027340195387	695
0	34402	10384.226312927638	694
0	34406	10385.230034731684	695
0	34408	10385.441879855468	696
0	34409	10385.846156042551	695
0	34412	10387.10316300757	694
0	34416	10387.329399476654	695
0	34420	10387.732088367374	696
0	34422	10388.214504617349	697
0	34423	10388.812710026389	696
0	34426	10390.449641163198	695
0	34430	10390.704158598444	696
0	34432	10391.450137053951	697
0	34433	10392.087127767427	696
0	34436	10394.064470700098	695
0	34440	10394.516273793391	696
0	34442	10394.539644241717	697
0	34443	10395.440647567918	696
0	34446	10397.005030184535	695
0	34450	10398.3333188069	696
0	34451	10398.977668305782	695
0	34454	10400.399159797018	694
0	34458	10401.850330814162	695
0	34459	10401.998801057895	694
0	34463	10402.187094267847	695
0	34464	10403.830982375068	694
0	34468	10404.145788432342	695
0	34470	10404.964076728491	696
0	34472	10405.384219719506	697
0	34473	10405.60850754149	696
0	34477	10406.100691420064	697
0	34478	10407.026654468772	696
0	34482	10408.026281987306	697
0	34483	10408.532057944794	696
0	34487	10408.797561694206	697
0	34488	10410.246259163801	696
0	34492	10410.350298831709	697
0	34493	10412.056428900842	696
0	34496	10413.828634053205	695
0	34500	10415.284468905031	696
0	34501	10415.450394258943	695
0	34505	10416.970312816371	696
0	34506	10417.273031528775	695
0	34510	10417.436368417668	696
0	34512	10417.476933241479	697
0	34513	10418.514969989207	696
0	34516	10420.087804726061	695
0	34519	10421.371664936204	694
0	34523	10421.479460064301	695
0	34525	10422.447562236328	696
0	34526	10423.177540337775	695
0	34530	10423.494218511599	696
0	34531	10424.465876356993	695
0	34535	10425.254635418789	696
0	34537	10425.410188072758	697
0	34538	10426.265158157531	696
0	34542	10426.738532023603	697
0	34543	10427.909430576037	696
0	34546	10429.675589277703	695
0	34550	10429.701275320424	696
0	34552	10430.564289990409	697
0	34554	10430.903433340764	698
0	34555	10431.258377030227	697
0	34559	10432.094701789994	698
0	34560	10433.168567179251	697
0	34563	10434.670723446752	696
0	34567	10435.425088027696	697
0	34568	10435.994051159839	696
0	34572	10436.407561674065	697
0	34573	10437.969747781302	696
0	34577	10439.587010485205	697
0	34578	10439.880330734062	696
0	34581	10441.681959211561	695
0	34585	10442.118313862387	696
0	34586	10443.1111902523	695
0	34590	10443.43633081608	696
0	34592	10443.68550603333	697
0	34593	10444.782953525815	696
0	34597	10444.852965646587	697
0	34598	10445.98933664627	696
0	34602	10446.466175208249	697
0	34604	10446.914968834257	698
0	34606	10447.825821294674	699
0	34607	10447.842629977982	698
0	34610	10449.676146158684	697
0	34614	10450.256970611423	698
0	34616	10450.968080390366	699
0	34617	10451.67039983153	698
0	34621	10452.122606870193	699
0	34623	10453.061420521474	700
0	34625	10453.216309591768	701
0	34626	10453.539539238919	700
0	34630	10454.437394579029	701
0	34631	10455.43820637643	700
0	34634	10456.929491732192	699
0	34638	10457.354331568951	700
0	34639	10458.23107767861	699
0	34642	10459.680158762183	698
0	34646	10459.925432519551	699
0	34648	10460.024922699121	700
0	34650	10460.549478591969	701
0	34652	10460.763720503609	702
0	34654	10460.8942471627	703
0	34655	10460.900584018897	702
0	34659	10461.439406716935	703
0	34660	10462.129137515198	702
0	34663	10463.704997968036	701
0	34667	10463.901214804673	702
0	34668	10465.554302516501	701
0	34672	10465.562172290849	702
0	34673	10467.102861071299	701
0	34677	10467.198629769256	702
0	34679	10468.265403605161	703
0	34680	10469.051083519976	702
0	34684	10469.204924146067	703
0	34686	10470.319776360586	704
0	34687	10471.041843574788	703
0	34691	10472.16913105142	704
0	34692	10472.773574523363	703
0	34695	10474.571140126619	702
0	34699	10475.636361854461	703
0	34700	10476.425621412616	702
0	34703	10478.233899499211	701
0	34707	10478.251529664278	702
0	34709	10479.290615643773	703
0	34710	10479.765584188062	702
0	34714	10480.779623187413	703
0	34715	10481.45600049227	702
0	34719	10481.507246417921	703
0	34720	10483.450148354019	702
0	34723	10485.157088909405	701
0	34727	10486.813753581495	702
0	34729	10486.975892402731	703
0	34730	10487.00394880298	702
0	34734	10487.412171926916	703
0	34736	10488.841154713122	704
0	34737	10488.842945465738	703
0	34741	10489.317416413599	704
0	34742	10490.690017027328	703
0	34746	10491.799972328617	704
0	34747	10492.039934869403	703
0	34751	10492.684017961233	704
0	34752	10493.25786575965	703
0	34756	10493.372640510101	704
0	34757	10495.105878612132	703
0	34760	10496.403302968399	702
0	34763	10497.634184947529	701
0	34767	10498.201020633179	702
0	34769	10498.615764264774	703
0	34770	10499.38071761235	702
0	34773	10501.168381097646	701
0	34777	10501.268618336361	702
0	34779	10502.721590781847	703
0	34780	10503.12910626802	702
0	34784	10504.684834799089	703
0	34785	10504.784195192637	702
0	34789	10505.026745388365	703
0	34791	10505.146698022543	704
0	34793	10505.653857984725	705
0	34794	10506.611800390774	704
0	34798	10506.861353881912	705
0	34800	10507.51160220458	706
0	34801	10507.940965052427	705
0	34805	10508.206433377866	706
0	34806	10509.843422896334	705
0	34809	10511.446639422805	704
0	34812	10513.325227245794	703
0	34815	10514.546955769428	702
0	34818	10515.785695402057	701
0	34822	10515.894463881944	702
0	34826	10516.610459526436	703
0	34828	10517.065507694122	704
0	34829	10517.257211381302	703
0	34833	10518.948005301863	704
0	34834	10519.106077410386	703
0	34838	10520.14125230823	704
0	34839	10521.102050503449	703
0	34843	10522.007886552964	704
0	34845	10522.300515048217	705
0	34846	10522.744906243788	704
0	34850	10524.046954123542	705
0	34851	10524.58856765415	704
0	34854	10525.899627718622	703
0	34858	10526.215136188611	704
0	34859	10527.204507426465	703
0	34862	10529.098309021363	702
0	34866	10529.758568388533	703
0	34867	10530.721602982389	702
0	34871	10531.030368775876	703
0	34873	10532.178433181655	704
0	34874	10532.278653860385	703
0	34878	10532.529926226213	704
0	34879	10534.029302933546	703
0	34883	10534.366135263705	704
0	34884	10535.547375437351	703
0	34888	10535.700330308362	704
0	34890	10537.230681360032	705
0	34891	10537.458876525903	704
0	34895	10537.915505019102	705
0	34896	10538.672194832856	704
0	34900	10539.315860184863	705
0	34901	10539.984774985643	704
0	34905	10540.473071842119	705
0	34907	10541.066901510734	706
0	34908	10541.962993190171	705
0	34912	10542.459391196292	706
0	34913	10543.286335593009	705
0	34917	10543.979621532176	706
0	34918	10544.492370675796	705
0	34922	10545.046937691426	706
0	34923	10546.323623401405	705
0	34927	10546.506695071817	706
0	34928	10547.82071550704	705
0	34931	10549.436438947277	704
0	34935	10549.758469039202	705
0	34937	10550.127190811469	706
0	34938	10551.298184716435	705
0	34941	10553.205824149133	704
0	34944	10555.131974996359	703
0	34948	10556.010570043259	704
0	34949	10556.419633140148	703
0	34952	10558.375869546191	702
0	34956	10559.101705307558	703
0	34958	10559.21862544637	704
0	34959	10560.184048907378	703
0	34963	10560.91733319254	704
0	34965	10561.326068442056	705
0	34967	10561.500288622875	706
0	34968	10561.693237773993	705
0	34972	10563.24706346658	706
0	34973	10563.406241506257	705
0	34977	10563.661247667868	706
0	34979	10564.949545582941	707
0	34981	10565.110403185662	708
0	34982	10565.359592897736	707
0	34986	10565.980760122004	708
0	34987	10566.56409263938	707
0	34990	10568.243374110491	706
0	34994	10568.656521463427	707
0	34996	10569.504060589365	708
0	34997	10570.132064185769	707
0	35000	10571.795774183714	706
0	35004	10573.071295818169	707
0	35005	10573.248618234241	706
0	35009	10573.352870022032	707
0	35011	10574.192930653468	708
0	35012	10575.204989333184	707
0	35016	10575.340346936434	708
0	35017	10576.446829257825	707
0	35021	10576.986169816524	708
0	35022	10577.801676828706	707
0	35026	10578.161531637059	708
0	35027	10579.600508418412	707
0	35031	10580.805174314309	708
0	35032	10580.807596236573	707
0	35035	10582.023169010052	706
0	35039	10582.288590449788	707
0	35040	10583.434264441313	706
0	35044	10584.669374380632	707
0	35045	10584.913485780092	706
0	35048	10586.16250619247	705
0	35052	10586.527800756951	706
0	35053	10588.031406541461	705
0	35057	10589.202924140214	706
0	35059	10589.841535483355	707
0	35060	10589.949919342914	706
0	35065	10591.455015114987	705
0	35068	10593.080923581788	704
0	35071	10594.429222945789	703
0	35075	10594.589562595471	704
0	35076	10596.130411062682	703
0	35079	10597.772435567075	702
0	35083	10598.545936760651	703
0	35085	10598.621185858869	704
0	35086	10599.139521909797	703
0	35089	10600.463633008221	702
0	35093	10600.689478773573	703
0	35094	10602.073947890395	702
0	35098	10602.509670319353	703
0	35100	10602.731300401629	704
0	35101	10603.961625653052	703
0	35105	10605.000965167494	704
0	35107	10605.137347035256	705
0	35108	10605.414775434987	704
0	35112	10605.989273191377	705
0	35114	10606.613163918907	706
0	35115	10606.823741068983	705
0	35118	10608.358536802152	704
0	35122	10609.48118192349	705
0	35123	10609.826179447131	704
0	35127	10610.534815744859	705
0	35129	10610.716420030283	706
0	35131	10610.92488510607	707
0	35132	10611.777836740495	706
0	35136	10612.916712794662	707
0	35138	10613.264278536312	708
0	35139	10613.335567216308	707
0	35143	10614.538124282593	708
0	35145	10614.551228934152	709
0	35147	10614.609275627449	710
0	35148	10614.83019844658	709
0	35152	10616.602089221068	710
0	35154	10616.648599952832	711
0	35157	10616.768560478569	710
0	35161	10617.452536129558	711
0	35162	10618.272047477693	710
0	35165	10620.125780351006	709
0	35169	10620.857163084972	710
0	35171	10620.934410359714	711
0	35172	10622.117463874363	710
0	35176	10622.437003535997	711
0	35177	10624.026816771471	710
0	35181	10624.489015131813	711
0	35183	10625.564584744478	712
0	35184	10625.836375936412	711
0	35188	10626.813579790595	712
0	35189	10627.105666921952	711
0	35192	10628.646800079116	710
0	35196	10629.658401337201	711
0	35197	10629.851468996623	710
0	35201	10630.042535015198	711
0	35203	10630.188346669564	712
0	35204	10631.548487308168	711
0	35208	10631.586927692592	712
0	35209	10633.049991209724	711
0	35213	10633.567873427849	712
0	35215	10634.215021645546	713
0	35216	10634.291734040075	712
0	35220	10634.892295909948	713
0	35221	10635.682088022039	712
0	35225	10636.301280237215	713
0	35226	10637.121440452628	712
0	35230	10637.14412458247	713
0	35232	10638.134239464176	714
0	35233	10638.349115814373	713
0	35237	10639.106572449987	714
0	35238	10639.928633507818	713
0	35242	10640.564731995262	714
0	35243	10641.362424846098	713
0	35246	10642.796705419861	712
0	35249	10644.026520655036	711
0	35253	10644.913491920881	712
0	35255	10645.154969981662	713
0	35257	10645.331236892942	714
0	35258	10645.856296091259	713
0	35261	10647.740188365348	712
0	35265	10647.949145128565	713
0	35268	10649.190976810746	712
0	35271	10651.132153097645	711
0	35275	10652.77336773402	712
0	35276	10652.893243384466	711
0	35279	10654.153046794527	710
0	35283	10654.704219526749	711
0	35285	10655.110209490201	712
0	35287	10655.255519949281	713
0	35288	10656.14512252725	712
0	35292	10657.3080584827	713
0	35293	10658.071476183006	712
0	35297	10658.557946270689	713
0	35298	10659.455420933211	712
0	35302	10660.19016592037	713
0	35304	10660.304957646203	714
0	35305	10660.864199730115	713
0	35309	10660.941379599599	714
0	35311	10661.958215310782	715
0	35312	10662.62608557112	714
0	35315	10664.063274796414	713
0	35319	10664.389215129476	714
0	35320	10665.483673579353	713
0	35324	10665.875702555072	714
0	35326	10666.854525960173	715
0	35327	10666.892031232189	714
0	35331	10667.950587812284	715
0	35332	10668.322474332448	714
0	35336	10669.716716349098	715
0	35337	10670.192437128831	714
0	35340	10671.501966096197	713
0	35344	10672.568458747028	714
0	35345	10673.347927891572	713
0	35349	10673.909870187364	714
0	35350	10674.65513528615	713
0	35354	10675.196830685494	714
0	35355	10676.195136532669	713
0	35359	10676.400970519723	714
0	35361	10676.53780197304	715
0	35362	10677.910539494005	714
0	35366	10678.406581643403	715
0	35368	10678.484958824971	716
0	35369	10679.706874572222	715
0	35372	10681.213854636361	714
0	35375	10683.16756041005	713
0	35379	10683.95792372116	714
0	35380	10685.038975708482	713
0	35384	10685.378102931321	714
0	35385	10686.854544453991	713
0	35389	10688.065275566492	714
0	35390	10688.378817548153	713
0	35394	10689.077263928887	714
0	35396	10689.366152607262	715
0	35398	10690.297860611992	716
0	35399	10690.30865928374	715
0	35403	10691.816360458184	716
0	35404	10691.900459765007	715
0	35408	10691.903529914115	716
0	35410	10692.389414550724	717
0	35411	10693.397660217357	716
0	35417	10693.811035245113	717
0	35419	10694.258801187811	718
0	35421	10694.505187770666	719
0	35422	10695.092674439137	718
0	35426	10696.289830062241	719
0	35428	10696.521650225177	720
0	35429	10697.033914713671	719
0	35433	10697.290853233652	720
0	35435	10697.869886355497	721
0	35436	10698.356550460046	720
0	35439	10699.914023235177	719
0	35443	10700.699270093896	720
0	35445	10701.050206830879	721
0	35446	10701.589628799183	720
0	35450	10701.982181915339	721
0	35452	10702.204883545133	722
0	35453	10703.064725461898	721
0	35457	10703.079445362589	722
0	35458	10705.000920366233	721
0	35462	10705.855430823694	722
0	35464	10705.984478858686	723
0	35465	10706.446952387614	722
0	35468	10707.817456633894	721
0	35472	10707.819079636233	722
0	35474	10708.53832609236	723
0	35476	10708.777542506484	724
0	35477	10709.223439580685	723
0	35481	10709.442044797223	724
0	35482	10710.854279574303	723
0	35485	10712.456946947349	722
0	35489	10713.398979357274	723
0	35491	10713.600006459805	724
0	35492	10714.077155462948	723
0	35496	10714.598384319283	724
0	35497	10715.337828972114	723
0	35500	10716.55761765383	722
0	35504	10717.984266841474	723
0	35505	10718.137129433004	722
0	35509	10719.476094616331	723
0	35512	10719.687319893686	722
0	35515	10721.019078685639	721
0	35519	10721.599235703251	722
0	35521	10722.249953595836	723
0	35523	10722.405038738481	724
0	35524	10722.918058508744	723
0	35528	10724.547922596489	724
0	35529	10724.777311446627	723
0	35533	10725.451493327642	724
0	35536	10726.606325268855	723
0	35540	10726.89505300987	724
0	35541	10728.196524939237	723
0	35545	10728.264067698138	724
0	35547	10728.480632250413	725
0	35548	10729.89021802686	724
0	35552	10730.458144006905	725
0	35553	10731.797961331642	724
0	35557	10732.921805459954	725
0	35559	10733.248932972508	726
0	35560	10733.653804423957	725
0	35563	10735.051009237318	724
0	35566	10736.523819224274	723
0	35569	10738.101482799573	722
0	35573	10738.115613156114	723
0	35575	10738.193566797926	724
0	35576	10739.714052030182	723
0	35580	10740.506991862393	724
0	35582	10741.164443106474	725
0	35583	10741.295149077585	724
0	35587	10741.531382957002	725
0	35589	10742.019489364074	726
0	35591	10742.419701191008	727
0	35592	10743.204661774745	726
0	35596	10744.036621901851	727
0	35598	10744.910990126716	728
0	35599	10745.044132020434	727
0	35603	10745.894707382155	728
0	35604	10746.767284415213	727
0	35608	10747.942691074518	728
0	35609	10748.627260608894	727
0	35613	10749.600097008992	728
0	35615	10750.402100329118	729
0	35616	10750.440815972646	728
0	35620	10750.610255575089	729
0	35621	10751.726489810755	728
0	35625	10752.299701640774	729
0	35626	10753.258519457763	728
0	35629	10754.98372777581	727
0	35633	10756.553462307228	728
0	35634	10756.904075568465	727
0	35638	10757.244328875995	728
0	35640	10757.621944229599	729
0	35642	10757.816101176482	730
0	35643	10758.254137248469	729
0	35647	10758.320743728399	730
0	35651	10759.617670648459	731
0	35652	10759.881156361212	730
0	35656	10760.945759457331	731
0	35657	10761.392050283697	730
0	35661	10761.479943145075	731
0	35662	10762.641704317105	730
0	35666	10762.719757531269	731
0	35667	10764.099522350279	730
0	35671	10764.147325580315	731
0	35673	10764.970193185894	732
0	35675	10765.026226254682	733
0	35676	10765.375442624201	732
0	35680	10766.637687722326	733
0	35681	10766.922697791752	732
0	35685	10767.287117749109	733
0	35686	10768.312029869777	732
0	35690	10768.778886791238	733
0	35691	10769.832209713493	732
0	35695	10770.101156018664	733
0	35697	10771.131867213646	734
0	35700	10771.701893645261	733
0	35704	10773.104289020898	734
0	35705	10773.576633530219	733
0	35708	10775.093930349608	732
0	35712	10776.514641925493	733
0	35713	10777.083377278333	732
0	35717	10777.962251548648	733
0	35719	10777.983074227586	734
0	35720	10778.409488441904	733
0	35724	10778.755967007108	734
0	35726	10779.681442439981	735
0	35727	10780.08101529136	734
0	35730	10781.481945984547	733
0	35734	10782.834687479937	734
0	35735	10783.086691157442	733
0	35739	10783.294233762943	734
0	35741	10784.019948743145	735
0	35742	10784.680102821548	734
0	35746	10785.788804858465	735
0	35748	10786.03748848527	736
0	35749	10786.450771572363	735
0	35752	10787.791790376712	734
0	35755	10789.784824301783	733
0	35758	10791.304059883688	732
0	35762	10791.44666376455	733
0	35764	10792.262392310255	734
0	35765	10792.962829807695	733
0	35769	10793.256051533235	734
0	35770	10794.54680426411	733
0	35774	10795.407255473455	734
0	35775	10796.132932313454	733
0	35779	10797.06421117585	734
0	35781	10797.588249389011	735
0	35782	10797.795091115419	734
0	35786	10797.986637529709	735
0	35788	10798.011641997817	736
0	35790	10798.081068696368	737
0	35792	10798.808361773291	738
0	35794	10799.548884719643	739
0	35795	10799.729127745625	738
0	35799	10800.8948968912	739
0	35800	10801.044111696553	738
0	35804	10801.980562871738	739
0	35805	10802.552110666331	738
0	35809	10802.961786898914	739
0	35810	10804.312831502143	738
0	35814	10804.623196140855	739
0	35815	10805.938037891421	738
0	35819	10807.026820172526	739
0	35820	10807.339731586832	738
0	35824	10808.146258656028	739
0	35825	10809.110484319474	738
0	35829	10809.140725653254	739
0	35831	10810.936481736273	740
0	35832	10811.015900196801	739
0	35836	10811.945730290431	740
0	35838	10812.049846091091	741
0	35839	10812.788294095653	740
0	35842	10814.090072154733	739
0	35846	10814.095906775059	740
0	35848	10814.921015145065	741
0	35849	10815.400594639512	740
0	35853	10815.420040387827	741
0	35854	10817.364495522822	740
0	35858	10817.560881151274	741
0	35859	10818.771010257224	740
0	35863	10819.688669737619	741
0	35865	10820.086396795628	742
0	35866	10820.571592004517	741
0	35870	10820.754277261349	742
0	35872	10820.910477956091	743
0	35875	10822.040021718027	742
0	35879	10823.02788171173	743
0	35880	10823.521715598473	742
0	35883	10825.330071807572	741
0	35887	10825.339230648373	742
0	35890	10826.598679567979	741
0	35893	10828.139497223788	740
0	35896	10829.472658519738	739
0	35899	10830.764706881635	738
0	35902	10832.316127438761	737
0	35905	10833.805980806157	736
0	35908	10835.784361142956	735
0	35912	10835.899737213343	736
0	35913	10837.438990904309	735
0	35917	10838.039943474106	736
0	35919	10838.392365254361	737
0	35920	10839.06250747788	736
0	35923	10840.979761902161	735
0	35927	10841.394453531315	736
0	35929	10841.760446101855	737
0	35930	10842.695712654211	736
0	35934	10842.723794081518	737
0	35936	10843.65751586097	738
0	35937	10844.679469006427	737
0	35941	10845.425997487524	738
0	35942	10845.958903232322	737
0	35945	10847.67608090929	736
0	35948	10849.089911576093	735
0	35952	10849.620297854562	736
0	35954	10850.209281344638	737
0	35955	10851.078525066853	736
0	35959	10852.168042530495	737
0	35961	10852.258978752993	738
0	35962	10852.867789098353	737
0	35966	10853.261168402818	738
0	35968	10853.667987453747	739
0	35969	10854.250039816194	738
0	35973	10854.302587092074	739
0	35975	10855.165168894497	740
0	35976	10855.695517371886	739
0	35980	10855.952057022179	740
0	35982	10856.145604314727	741
0	35983	10856.989643333398	740
0	35986	10858.39639976687	739
0	35992	10859.396144472349	740
0	35993	10859.764561309584	739
0	35997	10859.851966875233	740
0	35999	10860.046418143668	741
0	36001	10860.431107110486	742
0	36002	10861.311238603399	741
0	36006	10862.537719360749	742
0	36009	10863.295639197261	741
0	36013	10864.582119180249	742
0	36014	10864.687490667508	741
0	36017	10866.035541725078	740
0	36021	10866.037697662585	741
0	36023	10866.829118285057	742
0	36024	10867.766929071502	741
0	36027	10869.054429997237	740
0	36031	10870.439801485892	741
0	36032	10870.951837239148	740
0	36035	10872.422540840426	739
0	36038	10873.967418108241	738
0	36042	10874.608228815171	739
0	36043	10875.622202774243	738
0	36049	10877.488655485733	739
0	36050	10877.542267304392	738
0	36053	10878.758348258877	737
0	36057	10879.595112680614	738
0	36059	10879.747015911948	739
0	36061	10879.820430649827	740
0	36062	10880.273252314994	739
0	36065	10881.849985926146	738
0	36069	10882.51252995307	739
0	36071	10882.521164630714	740
0	36072	10883.58313020348	739
0	36076	10883.910617015754	740
0	36077	10884.984668277124	739
0	36080	10886.445337600926	738
0	36084	10886.777326935115	739
0	36085	10887.755608038338	738
0	36089	10887.896910922442	739
0	36091	10887.995229145985	740
0	36093	10888.677214476892	741
0	36094	10889.387278026635	740
0	36097	10890.664611600259	739
0	36100	10892.60102223094	738
0	36104	10892.887118214841	739
0	36106	10893.450662422634	740
0	36107	10894.276401135432	739
0	36110	10896.187422748389	738
0	36116	10896.345235658848	739
0	36118	10897.370700735756	740
0	36119	10897.617987537677	739
0	36123	10898.609245318453	740
0	36124	10899.319254175308	739
0	36128	10900.207680361557	740
0	36130	10900.452957654342	741
0	36131	10901.203889842997	740
0	36135	10902.393503651194	741
0	36137	10902.4324269934	742
0	36138	10902.458484865459	741
0	36141	10903.954575679371	740
0	36145	10904.13682896465	741
0	36147	10905.227904538553	742
0	36148	10905.495889168339	741
0	36151	10907.114146147402	740
0	36154	10908.49075352467	739
0	36158	10908.789416064289	740
0	36160	10909.482456485064	741
0	36161	10910.184918416584	740
0	36165	10910.562007332608	741
0	36166	10911.639827581974	740
0	36170	10912.835258970347	741
0	36171	10913.363527381713	740
0	36175	10914.107355645219	741
0	36178	10915.306892257477	740
0	36182	10916.584539825413	741
0	36184	10916.680147970512	742
0	36185	10916.685755893322	741
0	36189	10916.708950715388	742
0	36191	10917.416172521475	743
0	36192	10918.450978064644	742
0	36196	10919.223140565284	743
0	36197	10919.844803618188	742
0	36202	10921.287689491282	741
0	36206	10921.691572932811	742
0	36208	10921.799075261183	743
0	36209	10922.738605074691	742
0	36213	10923.74873830653	743
0	36214	10923.967220194372	742
0	36218	10924.349531371285	743
0	36219	10925.33020633507	742
0	36223	10925.971431283454	743
0	36225	10926.588853908119	744
0	36226	10926.942830832037	743
0	36230	10927.022279832189	744
0	36232	10927.069718081745	745
0	36234	10927.787533651506	746
0	36235	10928.912081910404	745
0	36238	10930.218241275395	744
0	36242	10930.222309977599	745
0	36244	10930.648896776688	746
0	36246	10931.703013672585	747
0	36247	10932.055309919561	746
0	36251	10932.875591222853	747
0	36252	10933.639781100969	746
0	36256	10934.175134673562	747
0	36258	10934.584981288911	748
0	36260	10934.787039696683	749
0	36261	10935.150767883766	748
0	36264	10937.113781923536	747
0	36268	10937.265694463177	748
0	36269	10938.931866460588	747
0	36273	10939.113179661406	748
0	36274	10940.862916077595	747
0	36277	10942.153493242446	746
0	36280	10943.716517184037	745
0	36284	10944.342905236375	746
0	36285	10945.15860327791	745
0	36289	10945.778102267096	746
0	36291	10945.875684437501	747
0	36293	10946.618160266065	748
0	36294	10946.88924221668	747
0	36298	10947.973646318956	748
0	36299	10948.418218623955	747
0	36302	10949.738377189931	746
0	36305	10951.184783551392	745
0	36309	10951.699847740675	746
0	36312	10952.502670333271	745
0	36316	10953.606587557815	746
0	36317	10953.80049945872	745
0	36321	10954.139660770485	746
0	36323	10954.810050345735	747
0	36325	10954.914882980514	748
0	36326	10955.226897062284	747
0	36330	10956.422959833401	748
0	36332	10956.671688713362	749
0	36333	10957.033877324608	748
0	36337	10957.926038721719	749
0	36338	10958.77520790409	748
0	36342	10958.894810989025	749
0	36344	10959.026858303219	750
0	36345	10960.254053646807	749
0	36348	10961.532417695891	748
0	36351	10963.214799533334	747
0	36355	10963.460523106097	748
0	36356	10964.860116229687	747
0	36360	10966.208685547019	748
0	36361	10966.654541700628	747
0	36364	10968.445091164034	746
0	36368	10968.502924454035	747
0	36370	10968.689532024705	748
0	36371	10970.43853899866	747
0	36374	10972.300257312987	746
0	36378	10973.44601771358	747
0	36379	10973.920132875551	746
0	36383	10974.140209628325	747
0	36385	10975.138249716658	748
0	36386	10975.808476829079	747
0	36392	10977.11163482121	748
0	36394	10977.202244309918	749
0	36395	10977.422580644784	748
0	36399	10977.866855790044	749
0	36400	10979.268253629392	748
0	36404	10979.677253133682	749
0	36406	10980.322811295573	750
0	36407	10980.563132522179	749
0	36410	10981.841129908262	748
0	36414	10982.311278469479	749
0	36415	10983.468690678401	748
0	36419	10984.250521876373	749
0	36421	10984.68878872642	750
0	36423	10984.746519655107	751
0	36424	10984.759623250848	750
0	36427	10986.38838187374	749
0	36431	10986.407431554598	750
0	36433	10986.923852495056	751
0	36434	10988.285835350415	750
0	36438	10988.790470675941	751
0	36439	10989.845763451902	750
0	36443	10990.204658418407	751
0	36445	10991.605574837157	752
0	36446	10991.768910401983	751
0	36449	10993.132788592687	750
0	36453	10993.285949950727	751
0	36455	10994.217058611899	752
0	36456	10994.70715431135	751
0	36460	10994.757656518181	752
0	36461	10996.096806269622	751
0	36466	10997.90975202687	750
0	36470	10999.09686583086	751
0	36471	10999.702576579078	750
0	36475	10999.98903347056	751
0	36476	11001.095199216082	750
0	36480	11001.512601665756	751
0	36482	11001.65462066051	752
0	36483	11002.567121565453	751
0	36487	11003.21867218773	752
0	36489	11003.617241503706	753
0	36490	11004.234082566685	752
0	36494	11004.346482335726	753
0	36495	11006.093212090171	752
0	36498	11008.032211146615	751
0	36501	11009.342905495055	750
0	36505	11009.980889110146	751
0	36506	11011.327531574406	750
0	36510	11011.707365609676	751
0	36511	11012.851810145863	750
0	36515	11012.885153583185	751
0	36517	11013.062354424974	752
0	36518	11014.393857931831	751
0	36521	11016.248443309889	750
0	36525	11016.638988958464	751
0	36526	11018.018471251541	750
0	36530	11019.092500852866	751
0	36532	11019.816215091738	752
0	36533	11019.874060466998	751
0	36537	11020.990550103074	752
0	36538	11021.469769102075	751
0	36542	11021.545838562323	752
0	36543	11022.688528825455	751
0	36547	11023.599577702297	752
0	36548	11024.568574082219	751
0	36552	11024.80421120867	752
0	36554	11025.301699688871	753
0	36555	11025.951103198268	752
0	36559	11026.997346118655	753
0	36560	11027.476291631088	752
0	36564	11028.11418129746	753
0	36565	11028.90279657498	752
0	36569	11030.020564310968	753
0	36570	11030.350768722333	752
0	36574	11030.710810938405	753
0	36576	11031.530221953346	754
0	36577	11031.946013151593	753
0	36581	11032.227703317119	754
0	36582	11033.687786775939	753
0	36585	11035.513458899148	752
0	36588	11037.235775408074	751
0	36592	11037.690438952188	752
0	36593	11038.44216532737	751
0	36597	11038.507945214284	752
0	36599	11039.150066729174	753
0	36601	11039.791208034856	754
0	36602	11039.953602394201	753
0	36606	11041.251559139899	754
0	36607	11041.705537604652	753
0	36611	11042.251190321772	754
0	36613	11042.71921484938	755
0	36615	11043.075139569	756
0	36616	11043.120667159296	755
0	36620	11043.303671310151	756
0	36622	11043.867950283968	757
0	36623	11044.891614983528	756
0	36627	11045.417596570068	757
0	36628	11046.807015649713	756
0	36632	11047.708791449062	757
0	36633	11048.591939769051	756
0	36636	11049.795793186239	755
0	36640	11050.041343227061	756
0	36642	11050.093483700359	757
0	36644	11050.598829228156	758
0	36645	11051.208621111809	757
0	36649	11052.369577884754	758
0	36650	11053.032261236681	757
0	36654	11053.653257374645	758
0	36655	11054.457483725919	757
0	36659	11055.322840612221	758
0	36660	11056.012057036831	757
0	36664	11056.218314516862	758
0	36667	11057.265105018317	757
0	36671	11057.524417783393	758
0	36673	11057.899491719668	759
0	36674	11058.836121494993	758
0	36678	11059.765500354952	759
0	36679	11060.670065376833	758
0	36682	11061.950127913915	757
0	36686	11062.0476602811	758
0	36688	11062.624431008319	759
0	36689	11063.818169969805	758
0	36693	11064.970292290482	759
0	36694	11065.31917208016	758
0	36698	11065.835074503205	759
0	36699	11066.69798959449	758
0	36703	11067.030190312235	759
0	36704	11068.693273314387	758
0	36708	11069.492596064208	759
0	36709	11070.630497811661	758
0	36712	11071.936919161231	757
0	36716	11072.709545292801	758
0	36718	11073.316972458122	759
0	36719	11073.440792893731	758
0	36722	11074.7804781276	757
0	36726	11075.705103685496	758
0	36728	11076.060435987069	759
0	36729	11076.099412598201	758
0	36733	11076.921675484881	759
0	36735	11076.961380612821	760
0	36737	11077.442934051936	761
0	36738	11078.024106282295	760
0	36741	11079.832360287124	759
0	36745	11081.171938667506	760
0	36746	11081.280452748129	759
0	36750	11082.403440764037	760
0	36752	11082.990718424041	761
0	36753	11083.072298879849	760
0	36757	11083.361371162726	761
0	36758	11084.445314249696	760
0	36761	11086.168393662685	759
0	36765	11086.231416417645	760
0	36767	11086.680214775387	761
0	36768	11087.391644352415	760
0	36771	11088.852222700344	759
0	36774	11090.221632986256	758
0	36778	11090.334203461139	759
0	36780	11091.225006963435	760
0	36781	11092.188218667285	759
0	36784	11094.050309445636	758
0	36788	11094.500037044239	759
0	36789	11095.431025582106	758
0	36792	11097.338698414081	757
0	36796	11097.54594809814	758
0	36797	11098.865958957487	757
0	36800	11100.780262650476	756
0	36804	11101.108967921744	757
0	36805	11102.24766186338	756
0	36809	11102.253279198003	757
0	36810	11104.202091967986	756
0	36814	11104.489172275062	757
0	36816	11104.637749469366	758
0	36820	11105.752084925142	759
0	36821	11106.105516116434	758
0	36825	11106.148296558644	759
0	36827	11106.265184822687	760
0	36829	11106.950874754488	761
0	36830	11107.982196692863	760
0	36833	11109.214293193371	759
0	36837	11109.392608943858	760
0	36839	11109.906465955654	761
0	36840	11111.126221504548	760
0	36844	11112.893681761759	761
0	36845	11113.077060124205	760
0	36848	11114.596785580853	759
0	36851	11116.530425071085	758
0	36855	11116.569945318042	759
0	36856	11117.735964598248	758
0	36860	11117.988381404868	759
0	36861	11119.471462891178	758
0	36865	11119.571480668103	759
0	36866	11121.302129939126	758
0	36869	11123.211869222785	757
0	36873	11124.272427471111	758
0	36874	11125.038693608085	757
0	36878	11126.833682107589	758
0	36879	11126.86918470517	757
0	36883	11127.243470237199	758
0	36885	11127.649978033021	759
0	36886	11128.123164545672	758
0	36889	11129.640510197284	757
0	36893	11130.443116304101	758
0	36894	11131.170827273766	757
0	36897	11132.969414624127	756
0	36901	11133.58368578912	757
0	36902	11134.212667737643	756
0	36906	11134.580546310441	757
0	36907	11136.026802173557	756
0	36911	11137.603864133841	757
0	36912	11137.631957026499	756
0	36916	11137.682991709135	757
0	36917	11138.937631720605	756
0	36920	11140.174010297025	755
0	36924	11140.249574462727	756
0	36926	11141.046780627987	757
0	36927	11142.075923959652	756
0	36930	11144.005970420988	755
0	36934	11144.674825117583	756
0	36935	11145.644471057059	755
0	36938	11147.004398587646	754
0	36942	11147.75827149226	755
0	36944	11148.327549056409	756
0	36945	11148.854100793155	755
0	36949	11149.645612165754	756
0	36951	11150.138296715212	757
0	36952	11150.754556993323	756
0	36956	11150.758833574516	757
0	36958	11151.494964221628	758
0	36960	11152.305481113651	759
0	36961	11152.332464532668	758
0	36965	11152.36702896865	759
0	36967	11152.565791407667	760
0	36969	11153.207318496611	761
0	36971	11153.618877098772	762
0	36973	11153.940241774511	763
0	36974	11154.059386738876	762
0	36978	11155.331987423403	763
0	36979	11155.994281733336	762
0	36985	11156.669744693123	763
0	36986	11157.974281532059	762
0	36990	11158.626292314614	763
0	36991	11159.873757272328	762
0	36995	11160.407396647227	763
0	36997	11160.943164695682	764
0	36998	11161.096247728097	763
0	37002	11161.92190741768	764
0	37003	11162.797441219466	763
0	37006	11164.276303481611	762
0	37009	11165.791745147596	761
0	37013	11166.529178645052	762
0	37015	11167.579418463851	763
0	37016	11167.667926451119	762
0	37020	11167.70483563948	763
0	37021	11169.149810634295	762
0	37025	11169.24431467941	763
0	37026	11170.447718139852	762
0	37030	11170.990027587907	763
0	37032	11171.207258362353	764
0	37033	11171.672945504377	763
0	37037	11172.225562732029	764
0	37038	11172.947750951836	763
0	37042	11173.418471835175	764
0	37044	11173.455844983231	765
0	37045	11174.713589823732	764
0	37048	11176.046508287193	763
0	37051	11177.736480539964	762
0	37055	11177.877464838388	763
0	37057	11178.864779271853	764
0	37058	11179.161101662667	763
0	37061	11180.581597758011	762
0	37064	11181.980538194926	761
0	37067	11183.640744024628	760
0	37071	11183.826565117442	761
0	37073	11184.092611378918	762
0	37074	11185.482067061701	761
0	37078	11185.683914333281	762
0	37080	11186.572995023723	763
0	37082	11186.797219241868	764
0	37084	11186.898885307573	765
0	37085	11187.359600063526	764
0	37088	11188.9833628352	763
0	37092	11190.454507936957	764
0	37093	11190.595787572415	763
0	37097	11190.938200495992	764
0	37099	11191.698906996483	765
0	37100	11192.424071995655	764
0	37104	11192.856446837564	765
0	37105	11193.720830967391	764
0	37109	11194.402236853943	765
0	37110	11195.596391104275	764
0	37114	11196.346823308667	765
0	37115	11196.807300723644	764
0	37119	11197.278686387018	765
0	37121	11197.50822948425	766
0	37122	11198.267536000462	765
0	37128	11199.432310721177	766
0	37129	11199.533002599628	765
0	37132	11201.275894851723	764
0	37136	11201.53461363427	765
0	37137	11202.64857114006	764
0	37141	11203.812806760157	765
0	37142	11204.042435054222	764
0	37146	11204.28591901355	765
0	37147	11205.78365830213	764
0	37150	11207.451851418355	763
0	37154	11207.984892882163	764
0	37156	11208.898385732676	765
0	37157	11209.00426386662	764
0	37161	11209.644386431712	765
0	37164	11210.331360728407	764
0	37168	11210.376091719854	765
0	37170	11210.378816307553	766
0	37171	11212.036943003649	765
0	37175	11213.453228969248	766
0	37176	11213.736350964496	765
0	37179	11214.975981491545	764
0	37183	11215.406986079611	765
0	37184	11216.553177456299	764
0	37188	11216.964189540255	765
0	37190	11217.673244883113	766
0	37192	11218.415516285198	767
0	37193	11218.447101189682	766
0	37196	11220.345586346576	765
0	37199	11222.11153174855	764
0	37202	11224.0982413511	763
0	37206	11224.173109732395	764
0	37208	11225.304444408447	765
0	37210	11225.370731025687	766
0	37211	11225.756298001224	765
0	37215	11226.339156935355	766
0	37216	11227.670283214675	765
0	37220	11228.415992190205	766
0	37221	11228.902045179644	765
0	37225	11229.204983189266	766
0	37227	11229.765690113021	767
0	37229	11230.392085696782	768
0	37230	11230.402299193406	767
0	37233	11231.712443641128	766
0	37237	11232.353111095347	767
0	37238	11233.533673647718	766
0	37241	11235.351687234381	765
0	37244	11237.288273688333	764
0	37248	11237.414259487186	765
0	37249	11238.97452291541	764
0	37254	11240.176987829732	763
0	37257	11241.567709948236	762
0	37261	11242.162635582873	763
0	37262	11243.309771633634	762
0	37266	11244.379280219533	763
0	37267	11244.676357820743	762
0	37270	11246.129946437964	761
0	37274	11246.692272763666	762
0	37276	11247.261344886087	763
0	37277	11248.100161101782	762
0	37281	11248.21156163296	763
0	37283	11249.038744967904	764
0	37284	11249.415300248862	763
0	37289	11250.752347585858	762
0	37293	11250.775329537151	763
0	37295	11251.025944901628	764
0	37296	11252.506332822443	763
0	37299	11253.991927073636	762
0	37302	11255.871240146384	761
0	37305	11257.26869194109	760
0	37309	11258.105375500217	761
0	37310	11259.264307102487	760
0	37314	11259.395363660649	761
0	37316	11259.627674850175	762
0	37318	11259.752577917667	763
0	37319	11260.969866741188	762
0	37323	11261.003555656068	763
0	37325	11261.285699769412	764
0	37327	11261.602075782072	765
0	37328	11262.641880329996	764
0	37332	11263.705931146417	765
0	37333	11263.934825835116	764
0	37337	11265.152706839083	765
0	37338	11265.295437052212	764
0	37342	11265.374149487605	765
0	37344	11266.158617668118	766
0	37346	11266.611338916551	767
0	37347	11266.679478068388	766
0	37350	11268.137679667137	765
0	37354	11269.06597251249	766
0	37355	11269.704977524205	765
0	37358	11271.617810668721	764
0	37362	11271.894299761138	765
0	37364	11272.318105503349	766
0	37365	11272.882306525595	765
0	37369	11273.280636342316	766
0	37371	11273.80978233567	767
0	37372	11274.245508114174	766
0	37375	11276.180119854324	765
0	37379	11276.230046201897	766
0	37381	11276.389664903343	767
0	37383	11277.50016721202	768
0	37385	11277.538670291649	769
0	37386	11278.071385861114	768
0	37390	11278.309132339384	769
0	37392	11278.393451351775	770
0	37394	11279.301894732089	771
0	37395	11279.588997090347	770
0	37399	11279.595678637043	771
0	37400	11280.937649836503	770
0	37405	11282.742689069286	769
0	37408	11284.157542794123	768
0	37412	11284.427657276684	769
0	37414	11284.481771910388	770
0	37416	11284.542690525903	771
0	37417	11285.614449248202	770
0	37420	11287.132632105164	769
0	37424	11287.139823854724	770
0	37425	11288.847024110444	769
0	37428	11290.088391947672	768
0	37432	11290.660501515461	769
0	37433	11291.741425655149	768
0	37436	11293.032251681313	767
0	37440	11293.977930326439	768
0	37442	11294.218920451914	769
0	37444	11294.69529725667	770
0	37445	11294.794691360854	769
0	37449	11296.074685994736	770
0	37450	11296.747162900232	769
0	37454	11297.658819773921	770
0	37455	11298.076379068308	769
0	37459	11298.974654738322	770
0	37460	11299.387338873856	769
0	37463	11300.824013979845	768
0	37467	11301.404253109494	769
0	37468	11302.15189133782	768
0	37472	11302.52989152871	769
0	37474	11303.06617453847	770
0	37476	11303.236421539334	771
0	37477	11303.607923704126	770
0	37481	11304.284978533582	771
0	37482	11305.391682010443	770
0	37486	11306.513054425917	771
0	37487	11306.872922965811	770
0	37491	11307.905368055013	771
0	37492	11308.406379476489	770
0	37496	11309.050211419467	771
0	37497	11309.768136911394	770
0	37500	11311.588905030789	769
0	37503	11313.529861920627	768
0	37507	11313.54718980522	769
0	37509	11313.793372316807	770
0	37513	11314.8291868521	771
0	37514	11315.165195753725	770
0	37518	11315.759189405826	771
0	37519	11316.661293207781	770
0	37523	11318.065826747451	771
0	37524	11318.295478091502	770
0	37527	11320.014022663908	769
0	37531	11320.016372010858	770
0	37532	11321.808868883477	769
0	37535	11323.029024591037	768
0	37538	11324.399220328146	767
0	37541	11326.090935142824	766
0	37545	11326.378165459416	767
0	37547	11327.727039187815	768
0	37548	11327.849849533589	767
0	37552	11328.817695634407	768
0	37553	11329.591591146143	767
0	37557	11329.721173868761	768
0	37559	11330.706095529953	769
0	37560	11331.360158618467	768
0	37564	11332.699870351377	769
0	37565	11333.356268468985	768
0	37569	11333.770411076873	769
0	37571	11333.921064123031	770
0	37572	11334.853262129353	769
0	37576	11335.007108883429	770
0	37577	11336.133208691256	769
0	37581	11337.192345899233	770
0	37582	11337.361452920476	769
0	37585	11339.001792344565	768
0	37589	11339.334116630069	769
0	37590	11340.974858606535	768
0	37593	11342.951596988666	767
0	37597	11343.183057150588	768
0	37599	11343.193473236962	769
0	37600	11344.768887637857	768
0	37604	11345.181839117079	769
0	37605	11346.75504443657	768
0	37609	11347.638721846349	769
0	37611	11347.739446639236	770
0	37613	11348.153525819534	771
0	37614	11348.253971471008	770
0	37617	11349.75073422559	769
0	37621	11351.437129255116	770
0	37622	11351.609753278572	769
0	37627	11352.912692889314	768
0	37630	11354.537103823688	767
0	37634	11355.231869805426	768
0	37636	11355.306518292528	769
0	37637	11356.043097582016	768
0	37640	11358.033637492288	767
0	37644	11358.809534043049	768
0	37645	11359.498516623791	767
0	37649	11359.957111241139	768
0	37650	11361.34699641608	767
0	37654	11362.584154639494	768
0	37655	11362.990127160142	767
0	37659	11363.082253374003	768
0	37661	11363.395053011956	769
0	37662	11364.93314899199	768
0	37665	11366.903486235554	767
0	37669	11366.933844039816	768
0	37670	11368.853892135362	767
0	37674	11369.777514577364	768
0	37675	11370.161400076303	767
0	37678	11371.577558466907	766
0	37682	11372.837624591295	767
0	37683	11373.053902151364	766
0	37687	11374.025491660738	767
0	37688	11374.964559221755	766
0	37691	11376.491035447571	765
0	37697	11377.658100870784	766
0	37698	11378.039495184015	765
0	37702	11379.213535271905	766
0	37705	11380.038736588064	765
0	37708	11381.453808892261	764
0	37712	11382.144553837975	765
0	37713	11383.365428985212	764
0	37717	11384.99120953757	765
0	37718	11385.064174305391	764
0	37722	11385.277598657871	765
0	37724	11385.843488299235	766
0	37725	11386.916748257842	765
0	37728	11388.653214242797	764
0	37732	11389.791942031567	765
0	37733	11390.125789478723	764
0	37737	11391.632759995596	765
0	37738	11392.074926957045	764
0	37742	11393.173651564563	765
0	37744	11393.268974106824	766
0	37745	11393.530239921924	765
0	37749	11393.70871174089	766
0	37751	11394.096203020676	767
0	37752	11395.336813744646	766
0	37755	11396.996557011199	765
0	37759	11398.128371210432	766
0	37760	11398.712829850358	765
0	37764	11399.990799074276	766
0	37765	11400.01893776611	765
0	37769	11400.433178213061	766
0	37770	11401.824458929082	765
0	37774	11402.765550337452	766
0	37775	11403.407951297355	765
0	37779	11403.475473391916	766
0	37780	11405.310349552636	765
0	37784	11405.754825809577	766
0	37786	11406.101999612502	767
0	37787	11406.714327176032	766
0	37791	11407.191972867658	767
0	37794	11408.186200702493	766
0	37798	11408.752753294854	767
0	37799	11409.624034354207	766
0	37803	11410.844989297045	767
0	37804	11410.91735330217	766
0	37808	11411.315872622558	767
0	37809	11412.344691896554	766
0	37813	11412.812057948239	767
0	37814	11414.021930919517	766
0	37818	11414.223499354563	767
0	37819	11415.518321118247	766
0	37823	11416.180420049429	767
0	37824	11417.425511382636	766
0	37828	11417.905143141314	767
0	37829	11418.918114999052	766
0	37833	11420.091481441778	767
0	37834	11420.160967138152	766
0	37837	11421.843238668259	765
0	37841	11423.178686975974	766
0	37842	11423.266011111554	765
0	37846	11424.519210040874	766
0	37847	11424.556755697098	765
0	37851	11424.589728023581	766
0	37853	11425.371262566429	767
0	37855	11425.453389586605	768
0	37856	11425.888574777287	767
0	37860	11426.436042128005	768
0	37861	11427.371334954281	767
0	37865	11427.899558406202	768
0	37866	11429.190243749623	767
0	37869	11430.457102946122	766
0	37873	11431.227097565538	767
0	37874	11432.006347190519	766
0	37877	11433.68303037968	765
0	37881	11434.502316559481	766
0	37882	11435.664771665935	765
0	37886	11436.839447014511	766
0	37887	11437.018321756762	765
0	37890	11438.253329486516	764
0	37894	11438.520097730174	765
0	37897	11439.668428797391	764
0	37901	11440.024129497676	765
0	37903	11440.76839330372	766
0	37904	11441.522386852582	765
0	37908	11442.881424605962	766
0	37909	11443.306835741107	765
0	37912	11444.963564173807	764
0	37916	11446.036841431813	765
0	37917	11446.506101538357	764
0	37921	11446.514298508558	765
0	37923	11447.4856198716	766
0	37924	11448.236686963518	765
0	37927	11449.468502995116	764
0	37931	11450.484589522175	765
0	37933	11450.798427282516	766
0	37934	11451.042009410565	765
0	37938	11451.236503106187	766
0	37940	11451.541662418171	767
0	37942	11452.005074857487	768
0	37943	11452.8033292006	767
0	37948	11454.109489980084	766
0	37951	11455.43120587871	765
0	37955	11456.659448730444	766
0	37956	11456.716428367352	765
0	37960	11458.425501564575	766
0	37961	11458.593086450105	765
0	37965	11459.644138584424	766
0	37966	11460.172652170179	765
0	37970	11460.448245246395	766
0	37972	11460.457473284845	767
0	37973	11461.56139695712	766
0	37976	11463.118837827003	765
0	37979	11464.88786059071	764
0	37982	11466.416576177559	763
0	37986	11466.896946408713	764
0	37988	11467.382115124687	765
0	37990	11467.697652797753	766
0	37992	11467.729218316286	767
0	37993	11467.864348158545	766
0	37996	11469.779028711773	765
0	38000	11470.163519113947	766
0	38001	11471.405306860178	765
0	38005	11472.249369059553	766
0	38006	11473.32318656028	765
0	38012	11473.736723299647	766
0	38013	11474.715823475763	765
0	38017	11475.477785335537	766
0	38020	11476.431697777405	765
0	38024	11476.445606883603	766
0	38025	11478.192774732157	765
0	38029	11478.29818612716	766
0	38031	11478.826465721364	767
0	38032	11479.472890005007	766
0	38035	11481.282082805343	765
0	38039	11481.634174370315	766
0	38041	11481.804122020608	767
0	38042	11482.785186322711	766
0	38046	11484.095114405511	767
0	38047	11484.290709517084	766
0	38050	11486.168846703254	765
0	38054	11486.810794444972	766
0	38058	11487.343086672043	767
0	38060	11487.45592632329	768
0	38062	11487.617294170334	769
0	38063	11487.947152550824	768
0	38066	11489.170095750064	767
0	38069	11490.700951843456	766
0	38072	11492.642397003927	765
0	38076	11493.431621525509	766
0	38077	11493.912535219946	765
0	38080	11495.524302915045	764
0	38083	11496.735156607748	763
0	38087	11496.777046695282	764
0	38088	11498.174307302692	763
0	38092	11499.046978241707	764
0	38093	11499.867647638106	763
0	38097	11500.26581881199	764
0	38098	11501.627012863876	763
0	38101	11503.389552249321	762
0	38105	11504.326971028217	763
0	38107	11504.991600556181	764
0	38108	11505.186647413791	763
0	38112	11506.274312397018	764
0	38114	11506.619414707414	765
0	38115	11507.177862071366	764
0	38119	11507.464971044966	765
0	38121	11508.288319589728	766
0	38123	11508.427740263062	767
0	38124	11508.840669477106	766
0	38128	11509.407911169136	767
0	38130	11509.488005163697	768
0	38132	11509.980933200541	769
0	38133	11510.462570565873	768
0	38136	11512.0638748796	767
0	38140	11513.11137434974	768
0	38141	11514.043694340186	767
0	38145	11514.163669873057	768
0	38147	11514.330750844064	769
0	38149	11514.473845671915	770
0	38151	11514.856101908876	771
0	38152	11515.607920674542	770
0	38156	11515.745042306493	771
0	38158	11515.949126757696	772
0	38160	11516.707702909679	773
0	38161	11517.567984642768	772
0	38164	11518.773917754674	771
0	38168	11518.954304178145	772
0	38169	11519.985960312495	771
0	38173	11521.315397904895	772
0	38174	11521.899279315891	771
0	38178	11521.923340427249	772
0	38180	11522.376672033084	773
0	38181	11523.506565536307	772
0	38184	11525.33568457284	771
0	38188	11526.275827556782	772
0	38190	11526.434084777678	773
0	38192	11526.774379664048	774
0	38193	11527.10821192556	773
0	38196	11528.935178372943	772
0	38199	11530.41440466673	771
0	38202	11531.821367824943	770
0	38206	11533.010539612249	771
0	38208	11533.198692323017	772
0	38209	11533.245593869248	771
0	38213	11534.193557367341	772
0	38215	11534.434795198802	773
0	38216	11534.633410714315	772
0	38220	11535.287436671479	773
0	38221	11536.107836864823	772
0	38224	11537.653792536379	771
0	38227	11539.184479815074	770
0	38231	11540.372858681257	771
0	38232	11541.137540247225	770
0	38236	11541.170587968431	771
0	38238	11541.656193941566	772
0	38239	11542.597011849218	771
0	38243	11543.242479137933	772
0	38245	11543.809465722143	773
0	38247	11543.941200948444	774
0	38248	11544.467340294578	773
0	38252	11545.88960700645	774
0	38253	11546.303955760159	773
0	38259	11546.856004122356	774
0	38261	11547.084360703218	775
0	38263	11547.161544599501	776
0	38264	11547.828088551507	775
0	38268	11548.599388136278	776
0	38269	11549.546260226079	775
0	38272	11551.187006113612	774
0	38276	11551.907696183031	775
0	38278	11552.072109565685	776
0	38279	11553.102690021627	775
0	38283	11553.25259732637	776
0	38285	11553.303437884381	777
0	38286	11554.535460103423	776
0	38289	11556.071871510082	775
0	38293	11557.117610895587	776
0	38294	11557.302669507199	775
0	38297	11558.623646701061	774
0	38300	11559.857694946722	773
0	38304	11560.20512568759	774
0	38306	11560.471250965592	775
0	38307	11561.119701198795	774
0	38311	11561.83216945155	775
0	38312	11562.573325962135	774
0	38316	11563.371735221154	775
0	38317	11564.333131820456	774
0	38320	11565.81316727002	773
0	38323	11567.424670400218	772
0	38327	11568.705135936436	773
0	38328	11568.767187764988	772
0	38332	11568.813737211997	773
0	38334	11569.866304867633	774
0	38335	11570.676968411476	773
0	38339	11571.679940631734	774
0	38340	11572.666165248424	773
0	38344	11573.30758241576	774
0	38346	11574.101467291913	775
0	38347	11574.523499979757	774
0	38351	11574.818767085472	775
0	38352	11575.907327340104	774
0	38356	11575.977751753131	775
0	38357	11577.206060130269	774
0	38361	11577.730992007462	775
0	38362	11578.945254943081	774
0	38366	11579.200137520822	775
0	38367	11580.155208156378	774
0	38370	11581.437541894362	773
0	38374	11581.874542588589	774
0	38376	11581.881596772917	775
0	38378	11582.856926452762	776
0	38379	11583.009601426617	775
0	38384	11584.779784414292	774
0	38388	11585.073647416132	775
0	38390	11585.734909662503	776
0	38393	11586.777275070482	775
0	38397	11587.00629785805	776
0	38398	11588.563372447834	775
0	38402	11588.701838330485	776
0	38403	11590.381451284819	775
0	38406	11592.299174459771	774
0	38409	11593.697682122634	773
0	38413	11594.830049765454	774
0	38414	11595.046050274492	773
0	38418	11595.614677233613	774
0	38419	11596.483036010646	773
0	38423	11596.555148273629	774
0	38425	11596.788261951765	775
0	38426	11598.479385501266	774
0	38430	11598.980931589376	775
0	38431	11600.37505409059	774
0	38435	11600.487882720669	775
0	38436	11601.828181813777	774
0	38440	11601.964329164483	775
0	38441	11603.041187484868	774
0	38444	11604.60305933927	773
0	38448	11606.410817538672	774
0	38449	11606.519578058951	773
0	38453	11607.760852871593	774
0	38455	11608.284060278697	775
0	38456	11608.517191554353	774
0	38460	11608.597085716365	775
0	38461	11609.866953365066	774
0	38465	11610.650725075405	775
0	38466	11611.118473756061	774
0	38469	11613.071846173638	773
0	38473	11613.980034473636	774
0	38474	11614.575924221919	773
0	38477	11615.980149232903	772
0	38481	11616.164176885703	773
0	38482	11617.277490632729	772
0	38486	11618.507360050159	773
0	38487	11618.54553981007	772
0	38491	11618.699824693126	773
0	38492	11620.331744586052	772
0	38496	11621.875514082556	773
0	38497	11621.950439689057	772
0	38500	11623.820946191372	771
0	38503	11625.090604607323	770
0	38506	11626.503095499174	769
0	38510	11626.767326694864	770
0	38511	11628.05826712449	769
0	38515	11628.213902237834	770
0	38516	11629.538688284651	769
0	38520	11629.92933860735	770
0	38521	11630.784328992226	769
0	38524	11632.455105312847	768
0	38528	11632.634568807653	769
0	38529	11633.937297277645	768
0	38533	11635.028617375621	769
0	38535	11635.047044466896	770
0	38538	11635.335687102125	769
0	38542	11635.577514931636	770
0	38543	11636.644276781687	769
0	38547	11636.730038066537	770
0	38549	11636.790432892182	771
0	38550	11638.50591670827	770
0	38554	11639.214411617007	771
0	38555	11639.71217209653	770
0	38559	11639.884578036205	771
0	38561	11641.074827275198	772
0	38562	11641.45592728381	771
0	38566	11642.257828829912	772
0	38568	11642.384259905506	773
0	38570	11642.6275950518	774
0	38571	11642.707079715589	773
0	38575	11642.95154064887	774
0	38577	11643.970398537865	775
0	38579	11644.283571692151	776
0	38580	11644.508869880745	775
0	38584	11645.334901712464	776
0	38585	11646.183301881635	775
0	38588	11647.671450176211	774
0	38592	11648.280483714018	775
0	38594	11648.666975937564	776
0	38595	11649.477833690057	775
0	38599	11650.317771432608	776
0	38600	11650.958729268732	775
0	38604	11651.450833746665	776
0	38606	11652.091666862	777
0	38608	11652.23887605854	778
0	38609	11652.425909735198	777
0	38612	11653.655688508536	776
0	38615	11655.56940571678	775
0	38619	11656.899842900434	776
0	38620	11657.441876893427	775
0	38624	11657.503874974995	776
0	38626	11658.682717006542	777
0	38627	11659.303227273125	776
0	38630	11661.051521331753	775
0	38633	11662.902836366306	774
0	38637	11663.109954353154	775
0	38638	11664.193973256583	774
0	38641	11665.746240272681	773
0	38645	11666.004189886394	774
0	38649	11666.635425247138	775
0	38650	11667.038373269635	774
0	38654	11667.257703956099	775
0	38655	11668.768217719841	774
0	38659	11669.252622718472	775
0	38661	11670.320010266436	776
0	38662	11670.573064478795	775
0	38666	11670.744119167347	776
0	38668	11671.918760820472	777
0	38669	11671.961768614064	776
0	38673	11672.198319051292	777
0	38675	11673.158440063875	778
0	38676	11673.45169862819	777
0	38680	11674.477142986285	778
0	38681	11674.942676770437	777
0	38685	11675.21379118246	778
0	38687	11676.117921559585	779
0	38688	11676.665004005033	778
0	38692	11677.04285533943	779
0	38694	11677.363402300153	780
0	38696	11677.877329234243	781
0	38697	11677.930140929792	780
0	38700	11679.296988663759	779
0	38704	11680.128583244012	780
0	38706	11680.229500332728	781
0	38707	11681.036932969402	780
0	38711	11681.137441361676	781
0	38712	11683.024351873185	780
0	38716	11683.143264585215	781
0	38717	11684.31696263061	780
0	38721	11685.440456831047	781
0	38722	11685.837565291609	780
0	38726	11686.531948104694	781
0	38728	11686.779268705914	782
0	38730	11687.176177863793	783
0	38731	11687.770799158636	782
0	38735	11687.995206390009	783
0	38737	11688.522397084261	784
0	38739	11689.009557596703	785
0	38741	11689.386001954603	786
0	38742	11689.509591442096	785
0	38746	11690.595718096879	786
0	38748	11690.716815355123	787
0	38749	11691.276678772951	786
0	38753	11691.729618663796	787
0	38754	11693.234879714745	786
0	38758	11694.013294797367	787
0	38759	11694.534566506865	786
0	38762	11695.984559344622	785
0	38766	11696.037467029632	786
0	38768	11696.204661602047	787
0	38769	11697.898564432683	786
0	38772	11699.563543362665	785
0	38775	11701.342660661536	784
0	38779	11702.166584204397	785
0	38780	11702.56969085944	784
0	38784	11702.579541339579	785
0	38786	11702.744912786888	786
0	38788	11702.888137327597	787
0	38790	11702.89418032953	788
0	38791	11704.097374796245	787
0	38794	11705.524894807052	786
0	38798	11705.587802503916	787
0	38800	11706.100228519785	788
0	38801	11707.426498939406	787
0	38804	11708.663205570478	786
0	38807	11709.956006901648	785
0	38810	11711.930763071712	784
0	38814	11712.685555844098	785
0	38816	11712.930020979296	786
0	38817	11713.667667123984	785
0	38821	11714.819949710282	786
0	38822	11715.495559188101	785
0	38826	11716.336734484681	786
0	38827	11716.857596530329	785
0	38830	11718.158621621813	784
0	38834	11719.2754613478	785
0	38835	11719.504034882534	784
0	38839	11720.258025017013	785
0	38840	11720.724597302761	784
0	38843	11722.511782873359	783
0	38847	11722.787895243242	784
0	38848	11723.737248292875	783
0	38851	11725.644012326871	782
0	38855	11727.35096341712	783
0	38856	11727.574743921061	782
0	38859	11728.817158995693	781
0	38863	11729.591354874572	782
0	38865	11729.962661866047	783
0	38866	11730.148598238764	782
0	38870	11731.079238940815	783
0	38871	11731.414660008004	782
0	38875	11732.601528480402	783
0	38877	11732.898350969244	784
0	38878	11733.006259660361	783
0	38882	11733.659450784205	784
0	38883	11734.763330237319	783
0	38886	11735.993571401512	782
0	38890	11736.76152484702	783
0	38891	11737.345429787351	782
0	38895	11738.950541199045	783
0	38896	11739.104524935907	782
0	38900	11740.111557045908	783
0	38902	11740.36916182948	784
0	38904	11740.455783636837	785
0	38905	11740.794729917063	784
0	38909	11741.869282256637	785
0	38910	11742.031028994857	784
0	38914	11742.772086420665	785
0	38916	11743.100557129926	786
0	38917	11743.613028469248	785
0	38921	11744.22685862313	786
0	38922	11745.04161218231	785
0	38926	11746.145436634027	786
0	38928	11746.189520761388	787
0	38929	11746.864344183667	786
0	38932	11748.288706308542	785
0	38936	11749.061225059003	786
0	38937	11749.548856683387	785
0	38941	11749.780425333458	786
0	38943	11750.207786180204	787
0	38945	11750.615069746831	788
0	38946	11750.903277667923	787
0	38949	11752.719958521737	786
0	38953	11752.759717117613	787
0	38955	11754.166397103234	788
0	38956	11754.216248309178	787
0	38960	11754.225649625817	788
0	38961	11755.558740738531	787
0	38966	11756.950855667641	786
0	38969	11758.545684887593	785
0	38973	11759.222446004486	786
0	38975	11759.389449949347	787
0	38977	11759.474922837616	788
0	38978	11760.169403565613	787
0	38982	11760.580916725615	788
0	38983	11762.050617362683	787
0	38986	11763.993745018666	786
0	38990	11765.28208458509	787
0	38992	11765.748194382627	788
0	38993	11765.814398294253	787
0	38999	11767.181798366283	788
0	39000	11767.532836092574	787
0	39005	11768.884367334594	786
0	39009	11769.25453477571	787
0	39011	11770.071424732518	788
0	39013	11770.368018036467	789
0	39014	11770.776163633105	788
0	39018	11771.206582037318	789
0	39020	11772.382358258825	790
0	39021	11772.5840860735	789
0	39025	11773.414621534427	790
0	39026	11774.177715170693	789
0	39029	11775.475263928559	788
0	39033	11776.101883446364	789
0	39035	11776.533044196094	790
0	39036	11777.127768174123	789
0	39040	11777.565984269163	790
0	39042	11777.725608633613	791
0	39043	11778.628811107326	790
0	39046	11779.962937383104	789
0	39050	11780.303291995069	790
0	39051	11781.941121682648	789
0	39055	11782.091770206349	790
0	39057	11782.51158218072	791
0	39059	11782.694984324215	792
0	39060	11783.591061129358	791
0	39064	11784.078516701396	792
0	39065	11785.218123807695	791
0	39069	11785.902224390173	792
0	39071	11786.092236146555	793
0	39072	11787.072653471615	792
0	39076	11787.803728841795	793
0	39077	11788.483830848459	792
0	39080	11790.081103504199	791
0	39084	11790.216418922908	792
0	39085	11791.794717657875	791
0	39089	11792.214548641216	792
0	39091	11792.803494323536	793
0	39092	11793.595347516734	792
0	39096	11794.182469975756	793
0	39098	11794.906709129241	794
0	39099	11795.156937208336	793
0	39103	11795.621270680332	794
0	39104	11796.650168464456	793
0	39108	11797.431597950631	794
0	39109	11798.436026124221	793
0	39113	11798.483575124626	794
0	39115	11799.184999998838	795
0	39117	11799.392979130264	796
0	39118	11799.810835235503	795
0	39121	11801.69715131161	794
0	39124	11803.355620760407	793
0	39128	11803.938451590358	794
0	39130	11804.987933031101	795
0	39131	11805.060070904467	794
0	39134	11806.394799858454	793
0	39138	11806.858990874074	794
0	39140	11807.261921074987	795
0	39141	11807.853825961176	794
0	39145	11808.988218863144	795
0	39146	11809.578700129065	794
0	39150	11810.619846722073	795
0	39151	11811.036225208017	794
0	39155	11811.130357982426	795
0	39156	11812.821643815684	794
0	39160	11813.502276184218	795
0	39161	11814.34241453738	794
0	39164	11815.585724609467	793
0	39167	11817.314130119915	792
0	39170	11819.205696673999	791
0	39174	11819.828891240564	792
0	39176	11820.277818809543	793
0	39178	11820.621083631029	794
0	39179	11821.200075235712	793
0	39183	11821.535345704196	794
0	39184	11822.593470541696	793
0	39188	11824.060833671648	794
0	39189	11824.126070043753	793
0	39192	11825.640889030072	792
0	39196	11826.885247323589	793
0	39198	11826.926861393602	794
0	39199	11827.633734274778	793
0	39202	11829.367741292837	792
0	39206	11829.942251429998	793
0	39208	11830.695902129979	794
0	39211	11830.804497280094	793
0	39215	11832.149296792618	794
0	39216	11832.164463523711	793
0	39220	11832.528545673883	794
0	39221	11833.548688463616	793
0	39224	11834.865097634802	792
0	39228	11835.525011095711	793
0	39231	11836.234318284998	792
0	39235	11836.491446468908	793
0	39236	11838.183828443596	792
0	39239	11839.590426983246	791
0	39242	11841.496869029598	790
0	39246	11841.606991325689	791
0	39248	11842.054088618333	792
0	39249	11843.025057680839	791
0	39253	11843.971535296027	792
0	39255	11844.736294697672	793
0	39256	11844.871051197619	792
0	39260	11846.026333166317	793
0	39261	11846.743067430266	792
0	39265	11847.272779166466	793
0	39267	11847.77963721211	794
0	39268	11848.276100880773	793
0	39272	11848.29349588189	794
0	39273	11849.784536413782	793
0	39277	11850.708020133514	794
0	39280	11851.076449122772	793
0	39283	11852.392965712518	792
0	39286	11853.906207359329	791
0	39290	11854.339006965238	792
0	39291	11855.736990462177	791
0	39295	11856.404691774976	792
0	39296	11857.265770226278	791
0	39299	11858.570032504321	790
0	39303	11859.952118066396	791
0	39304	11860.094486260534	790
0	39308	11860.713406578474	791
0	39309	11861.667160954819	790
0	39313	11861.875970069358	791
0	39315	11862.2169195392	792
0	39317	11862.22991848606	793
0	39318	11863.159487786264	792
0	39322	11864.034262801447	793
0	39323	11865.025073335067	792
0	39327	11866.386557645091	793
0	39328	11866.88987254978	792
0	39331	11868.464671437003	791
0	39335	11869.282586404205	792
0	39336	11869.849669900283	791
0	39340	11870.313497682548	792
0	39342	11871.24651090897	793
0	39343	11871.267069943368	792
0	39347	11871.684738091722	793
0	39349	11872.350486307043	794
0	39350	11873.153922567077	793
0	39354	11873.487720371636	794
0	39355	11874.869650243342	793
0	39359	11875.005497638751	794
0	39361	11875.696416879904	795
0	39362	11876.580906967379	794
0	39365	11877.816416639581	793
0	39369	11877.992483701889	794
0	39371	11878.630950316684	795
0	39372	11879.404578601315	794
0	39376	11879.751658490464	795
0	39377	11881.013326176933	794
0	39381	11881.25803660265	795
0	39383	11881.348498486973	796
0	39384	11882.388901769674	795
0	39388	11882.610291588906	796
0	39390	11882.739749041289	797
0	39391	11883.925923488034	796
0	39395	11884.334685757699	797
0	39397	11884.366842080548	798
0	39398	11885.764450949548	797
0	39402	11887.050878121537	798
0	39404	11887.343191624507	799
0	39405	11887.714986902593	798
0	39409	11888.366563824836	799
0	39410	11889.574593998609	798
0	39414	11890.128296017546	799
0	39415	11890.936859068578	798
0	39420	11892.517576109549	797
0	39424	11893.197521542287	798
0	39426	11893.889000740851	799
0	39428	11894.052017191612	800
0	39429	11894.365856720811	799
0	39433	11895.815524858855	800
0	39434	11896.343120717189	799
0	39438	11896.678709474473	800
0	39439	11898.24944004838	799
0	39442	11899.489244447766	798
0	39446	11900.164043463743	799
0	39448	11900.43090874986	800
0	39449	11900.715885432182	799
0	39452	11902.125503700344	798
0	39456	11902.933086332912	799
0	39457	11903.657508182457	798
0	39461	11904.62636238825	799
0	39462	11905.389599280736	798
0	39465	11906.739295429109	797
0	39468	11907.962552623941	796
0	39472	11908.017165280208	797
0	39474	11908.707176286386	798
0	39476	11908.866601590806	799
0	39478	11909.012776363487	800
0	39479	11909.392365375838	799
0	39483	11910.515157568815	800
0	39485	11910.569930241007	801
0	39486	11910.656920001588	800
0	39489	11912.184976239807	799
0	39493	11912.458802562097	800
0	39495	11912.727565920724	801
0	39496	11913.969096098213	800
0	39500	11915.443210055944	801
0	39501	11915.905379837124	800
0	39505	11917.46936607922	801
0	39506	11917.570471726662	800
0	39510	11918.021459240314	801
0	39512	11918.744847618993	802
0	39513	11918.850878789207	801
0	39519	11920.129139507879	802
0	39520	11920.280507918565	801
0	39523	11921.784255368567	800
0	39526	11923.255583408593	799
0	39530	11923.581309536136	800
0	39532	11923.866705578887	801
0	39533	11924.750201909735	800
0	39537	11925.22957611466	801
0	39538	11926.283168586834	800
0	39542	11926.306723776309	801
0	39544	11926.473108531988	802
0	39545	11927.622062232091	801
[...]
6	74599	22402.276821368319	6.342803647153
6	74685	22427.308895360997	5.984000906173
6	74790	22460.569030012696	1.480185683817
6	74835	22471.756744869932	14.858028025873
6	74849	22475.069191532715	48.123136110099
6	74864	22480.246588671341	47.949495345263
6	74930	22500.647501856407	9.644414519035
6	74954	22507.479017833007	8.545532688775
6	75104	22551.690321695934	7.647825686275
6	75126	22558.569903089608	1.776947272755
6	75145	22567.516470053922	12.027014694125
6	75154	22568.789018360469	3.25024709518
6	75170	22572.053398641328	17.798981028585
6	75175	22573.630041186641	1.576642545313
6	75202	22582.260076895859	36.697237081709
6	75257	22600.892349759061	1.892427239567
6	75297	22613.231370381955	3.511682342301
6	75332	22624.437668119129	6.289437691753
6	75342	22627.630834085439	1.34014584329
6	75408	22646.813293703591	24.435163309994
6	75430	22652.92944080787	5.976140542159
6	75494	22671.73689041896	14.511121937519
6	75497	22673.580994204751	7.021746580448
6	75510	22678.735324103518	21.654516631075
6	75562	22693.216948724857	7.422450984684
6	75629	22713.72022593575	13.898491540264
6	75662	22725.266408796557	9.48317929955
6	75665	22726.617582869478	80.188913947411
6	75683	22733.138869585977	8.913050941767
6	75752	22750.096649061279	17.22479915569
6	75855	22777.33611710942	1.442442399077
6	75858	22779.012026941912	20.253995645618
6	75879	22786.093345686743	28.416102642594
6	75897	22791.73434549267	50.431491503929
6	75950	22805.712541344524	67.069828903551
6	75966	22812.043530419417	46.37432588041
6	75972	22815.16773517406	25.871164215059
6	76089	22847.234491190633	16.364761575308
6	76104	22852.372943670807	1.902193754166
6	76138	22862.558540673127	11.813225787184
6	76149	22867.12690216521	6.135367056564
6	76156	22868.809933470508	1.683031305298
6	76214	22888.171484238972	5.738208236391
6	76229	22893.189649155309	17.845018019897
6	76319	22915.724251560998	3.51114689504
6	76453	22953.834644954223	1.243511529826
6	76687	23023.320105742238	2.960922959085
6	76708	23031.660331898503	3.838152536968
6	76717	23033.496702834725	17.578631035249
6	76762	23048.088852680237	4.809580987123
6	76812	23064.517348951236	29.687962356534
6	76819	23065.804181405105	67.56668067022
6	76903	23091.745385052213	19.625414177904
6	76951	23104.920243475721	5.370118409982
6	76964	23109.390087808617	3.220591524381
6	77043	23133.03448093193	3.074475828933
6	77065	23139.774581725098	10.95940749791
6	77076	23144.531594336167	5.838164551606
6	77081	23146.332299434528	1.800705098361
6	77098	23150.986811162665	8.203925500361
6	77111	23155.682911038905	17.230991287814
6	77139	23165.903471943683	1.722787738405
6	77159	23172.957684625259	22.10698784281
6	77188	23180.177789124793	1.316147261113
6	77283	23207.661895742959	5.798159729549
6	77290	23209.651788700691	4.876954953893
6	77323	23223.561857600643	10.181615069494
6	77410	23248.027623665279	7.775934018602
6	77452	23259.928607523761	41.899368228927
6	77651	23315.028396530769	5.660224326026
6	77800	23361.096083046257	27.552356045135
6	77833	23373.418088822015	35.781550548428
6	77897	23389.575845087268	4.560087267079
6	78034	23429.798805944941	5.857646344348
6	78073	23441.058793530187	6.853088598269
6	78116	23455.434987750968	21.288322510059
6	78126	23459.054474463819	5.716110933625
6	78129	23460.714189035764	34.158238340951
6	78209	23481.831519658063	1.258269770257
6	78269	23497.469371345396	6.634664722112
6	78279	23500.168995656388	3.764979839143
6	78296	23505.086435434723	6.926626163487
6	78383	23532.696022747213	43.326622754331
6	78402	23537.681050440239	15.648847356255
6	78417	23542.889563473257	5.813557152773
6	78442	23550.882231836336	14.06672454312
6	78504	23565.879697347003	12.507353281267
6	78561	23583.763554278519	4.601937235745
6	78588	23591.762102788259	12.866692163411
6	78608	23598.198686944078	9.616721389461
6	78623	23602.969774960856	13.692737620902
6	78654	23614.397397070508	1.681649414636
6	78758	23644.484739598574	9.401092492501
6	78771	23649.165989834944	3.920656639075
6	78895	23689.994882499368	26.323761321439
6	78968	23707.316302258276	4.777585295807
6	78981	23712.535585427412	9.050783326745
6	79003	23721.561908018343	24.657803834034
6	79089	23745.44852402912	16.002295866041
6	79101	23748.057211425467	8.819704888149
6	79184	23774.67200591167	7.563004090004
6	79208	23779.986375801392	38.221357642266
6	79259	23793.689875141286	35.270215646081
6	79394	23836.318680504465	23.832757809897
6	79527	23878.424394120589	13.099487096223
6	79561	23887.468242817498	4.076276668904
6	79611	23903.625979897877	3.288586811191
6	79619	23906.477138017056	1.27763853427
6	79639	23914.055451477071	6.383034282661
6	79699	23929.762301430789	5.866120338843
6	79741	23943.29952679382	5.331730490237
6	79768	23951.602347887431	30.430302177001
6	79872	23984.605226267067	7.729922899141
6	79892	23990.780646881026	1.499573559128
6	79938	24005.904303741206	51.665660079735
6	79958	24012.647975017626	27.948004091261
6	79978	24018.948878739896	80.712020700712
6	80183	24081.978021678633	3.031576207673
6	80226	24096.59162528657	6.712696093788
6	80278	24112.41319269587	33.808565975807
6	80316	24122.316636215641	11.261805813428
6	80345	24130.48935021267	48.042374786597
6	80371	24141.122771271064	10.320244516199
6	80454	24163.68256273356	12.247405884462
6	80597	24204.3175534067	5.146793805655
6	80781	24264.072680541617	11.648078306491
6	80801	24269.943164543552	12.757305482112
6	80864	24290.483977599188	30.368535906781
6	80914	24303.761430075323	1.614598420821
6	80921	24305.733446952818	17.768572373699
6	80977	24321.323105562036	41.185162766609
6	81047	24343.803921632212	1.729242626391
6	81079	24353.290983820822	27.487925274566
6	81123	24365.934606471587	1.447864073701
6	81180	24383.951827611144	15.896305922029
6	81274	24409.418430014254	14.15622129577
6	81381	24443.511038075687	17.159871498898
6	81403	24449.479552700484	21.906956315189
6	81425	24455.808104161287	12.966807092449
6	81458	24466.367089551429	4.142616766939
6	81479	24474.230190135093	1.955540163815
6	81508	24482.354123958313	1.667711093463
6	81567	24501.216021802204	19.384178027302
6	81626	24519.614976400998	39.307603794499
6	81666	24533.426898126794	23.898375967534
6	81747	24557.242053473299	3.808947180897
6	81806	24574.641084380379	12.138395890574
6	81827	24579.712654180756	1.565657682531
6	81830	24581.381784986077	1.669130805321
6	81853	24589.16379423712	7.290110316094
6	81902	24604.091582632368	60.838649662469
6	81953	24619.884215857578	14.482351008815
6	82188	24688.132779683287	4.483592611006
6	82207	24696.536415962803	1.853430570476
6	82233	24703.290401966612	1.861157068051
6	82248	24707.973172875049	6.511279140394
6	82251	24709.660566824789	10.560609219842
6	82256	24711.049988429735	37.552459251317
6	82313	24728.830588565881	19.07545987318
6	82363	24744.615497745686	1.643837125599
6	82413	24757.248922699058	8.391643241294
6	82451	24770.255434631855	7.166772313413
6	82464	24774.847251745426	5.071460718758
6	82477	24779.522518211157	1.717707330361
6	82492	24785.179704603666	15.148589041117
6	82529	24792.935925106631	5.052115290094
6	82550	24797.781132250951	17.010948462876
6	82690	24838.046636124251	2.867423920684
6	82697	24839.693277070781	4.143885983816
6	82720	24847.744511488935	5.939938322142
6	82746	24854.882999660371	3.804297602797
6	82829	24879.546008443571	4.299799528831
6	82846	24884.15334242221	8.905694655618
6	82856	24887.682815571614	4.77611683839
6	82870	24890.517267978118	1.226961475611
6	83038	24939.90290050313	19.262212432134
6	83077	24951.096597164051	7.521738394964
6	83422	25050.665453527794	66.268516199981
6	83475	25064.860179174616	3.278846747606
6	83520	25076.305098794512	78.159605505376
6	83528	25079.785899516493	4.105445677199
6	83558	25089.460017686449	3.82317999269
6	83595	25103.043751560823	16.216115860593
6	83759	25151.363264965562	10.401748227929
6	83915	25200.247916491997	13.169122997266
6	83942	25208.305802416166	7.304722618318
6	83979	25219.398809570555	10.173748290542
6	83996	25224.279097908471	1.677423769794
6	84007	25225.603754986745	8.496848802718
6	84027	25231.941546372805	1.728951705061
6	84039	25235.518017257485	1.668109356984
6	84062	25240.736174630481	38.011386187318
6	84081	25245.944930668841	3.759293591135
6	84089	25249.17962790701	23.802350067896
6	84159	25269.734632651613	17.891785769434
6	84212	25287.942012309948	8.291605251372
6	84241	25295.669992415899	5.733554202064
6	84323	25319.029653361359	64.937098765371
6	84438	25350.500217128837	11.342464749687
6	84479	25360.881201243134	19.814270320986
6	84489	25364.154074088962	8.401729061099
6	84599	25399.724328049193	19.569909630112
6	84747	25446.007850054944	9.296036994524
6	84768	25451.367815627264	1.7975918632
6	84856	25476.055803759689	12.451993644197
6	84899	25487.900359901149	5.553017652765
6	84940	25502.103116376435	6.674893972372
6	84986	25516.418036722873	6.651762585656
6	85030	25528.304779860858	1.28815578185
6	85108	25552.147042808232	1.217192656361
6	85124	25559.005057945584	24.410528955977
6	85172	25571.630260618512	34.619591714262
6	85184	25578.998338116628	80.259138426889
6	85273	25605.688133461882	1.290052367561
6	85328	25621.005651309262	6.078133346189
6	85483	25665.168986999349	1.375520771369
6	85524	25676.110180209683	5.149832473865
6	85533	25680.520583477909	1.452561574057
6	85604	25701.196273705284	1.7018648142
6	85720	25734.301554319371	13.291902921766
6	85728	25737.795942430307	10.790166323346
6	85819	25765.329235294757	1.486298437044
6	85826	25766.602428064977	21.103560952674
6	85876	25782.777177193684	34.90626387019
6	85918	25795.102735443709	11.35011572721
6	85921	25796.829415361506	9.423323680792
6	85993	25821.688452847409	15.11395165992
6	86031	25831.546687906901	1.207357499748
6	86036	25833.527323075491	11.227013185341
6	86064	25843.784664358492	53.408631131341
6	86078	25847.042992429729	1.863794588484
6	86167	25874.25373563181	5.468073508926
6	86473	25960.501658309356	9.172195738516
6	86557	25983.139582140662	3.877779823782
6	86654	26010.157098258019	12.681908497247
6	86670	26016.614818972268	3.395381497723
6	86735	26034.62736827872	44.955226983426
6	86911	26085.081433579988	16.654631408356
6	86918	26086.309500508673	5.975985491779
6	86987	26104.224752427183	35.906293140933
6	86999	26110.690074159869	1.214787043445
6	87036	26121.993206038618	7.787691271727
6	87066	26132.117314781354	14.101523235298
6	87081	26137.421990073578	1.718502885476
6	87089	26140.519078515017	6.909136182773
6	87092	26141.826289576957	6.064043594737
6	87095	26143.699420386473	5.522057621617
6	87123	26153.281957605588	1.610181859322
6	87244	26186.666630226665	7.706891987048
6	87292	26203.187186551571	16.492731796642
6	87336	26215.392128422214	26.872066728215
6	87387	26233.808408468135	22.528374041043
6	87396	26235.479945351847	4.206331296729
6	87481	26262.985688660399	18.946629502591
6	87861	26373.450539135481	42.072605229728
6	87894	26385.042921692427	7.200800143723
6	87962	26403.441160399204	5.359470354958
6	87975	26408.314455406478	39.913709532334
6	87998	26415.722620219848	8.07526980324
6	88003	26417.520609841606	68.486485291888
6	88008	26419.175855592376	32.612560505473
6	88175	26467.543505289704	16.298563444032
6	88206	26479.191996360682	11.180707420104
6	88260	26494.358330547735	3.245206829147
6	88322	26516.384810720496	75.78124457459
6	88355	26524.760792494305	10.414631561813
6	88446	26553.286557021105	8.706499233322
6	88464	26559.733050909752	1.829801619053
6	88562	26587.766987900737	1.346428469755
6	88754	26641.378218603996	6.986072431786
6	88905	26689.420535045048	65.761297077161
6	88940	26700.676592706634	1.668520362489
6	88953	26706.095833109996	7.880266908044
6	88964	26710.422678166001	1.591596831568
6	89117	26756.176566772093	5.500557182096
6	89188	26777.446225468186	8.272343681203
6	89213	26788.138928162051	17.258259294399
6	89232	26795.620868047631	16.22281380061
6	89357	26835.399430199646	16.759917623828
6	89406	26849.81650564552	1.61195004601
6	89418	26852.928389831378	50.478369955822
6	89471	26864.061619485288	1.74243445769
6	89474	26865.272442546233	14.749773270924
6	89524	26878.373506236568	6.353650787574
6	89570	26893.097723039544	5.876066853615
6	89591	26898.182575397871	37.034318990682
6	89604	26902.735208568468	34.641008115261
6	89618	26908.556312319382	16.127974644169
6	89689	26928.313601151601	26.131681300049
6	89757	26952.729877895794	3.578971669982
6	89917	26995.317264217258	28.070263228665
6	89922	26997.142706313476	30.636142503138
6	89948	27002.750126499615	73.942948101362
6	89990	27015.35343075034	18.965627199699
6	90001	27020.147101487338	3.553657838574
6	90010	27021.847707811675	34.983597038047
6	90018	27025.712622754208	12.822341438173
6	90059	27037.451225017688	10.539282193524
6	90092	27048.290378692307	11.484523463038
6	90195	27077.960408094646	14.813267844331
6	90212	27082.833692759768	4.362960638225
6	90225	27087.13994178281	1.242755192704
6	90230	27088.85165100091	10.201352701013
6	90240	27091.682376540572	1.288248194382
6	90279	27102.588823773459	18.588924051108
6	90290	27107.623728380473	5.578822628008
6	90544	27179.687110698531	15.870989792115
6	90554	27182.981342546391	1.864168196917
6	90562	27186.390750057186	25.556207687948
6	90602	27199.483743466001	19.120151805425
6	90610	27201.943994495023	20.489739684791
6	90676	27220.551795552048	5.825758775258
6	90712	27233.431006195518	4.476408518606
6	90764	27250.325686376292	35.964752964726
6	90773	27255.521687493037	10.258389332105
6	90776	27256.767449774902	37.099035299113
6	90875	27282.490319215816	9.650119191126
6	90890	27287.018696191844	17.088600340034
6	90895	27288.38693438669	1.368238194846
6	90919	27294.791561297825	27.508564819538
6	91009	27322.847661786092	3.598927849525
6	91207	27382.394823077632	13.040943613299
6	91217	27385.808701568222	6.624763189765
6	91501	27466.839861302391	17.80528638622
6	91683	27519.426861225009	1.884605708346
6	91760	27541.258720707275	4.697832801687
6	91783	27548.892245026991	1.761434765719
6	91837	27564.736534771078	4.281613691967
6	91859	27571.095227792614	1.892674768716
6	92052	27629.730344588811	8.391389529854
6	92192	27670.418679823668	1.954529633187
6	92231	27681.356554062979	1.982555995695
6	92315	27706.116557111906	29.274021169365
6	92323	27709.090571823845	8.365729945215
6	92366	27720.431252816076	1.985070413165
6	92437	27740.266377315799	1.449093548208
6	92593	27785.42775795622	1.874660679884
6	92708	27816.965392725859	7.448986810863
6	92731	27825.109940470328	5.300236934892
6	92770	27836.18983218683	1.578621804342
6	92856	27863.511171508899	10.616607980287
6	92867	27868.4274965187	1.664111815766
6	92970	27899.444362367265	1.475364642777
6	92981	27905.064662600256	8.135980306729
6	92986	27906.817191242188	1.752528641932
6	93023	27917.909818154894	20.43779032441
6	93026	27919.705838724919	1.796020570025
6	93044	27925.647146127507	12.728838833412
6	93134	27952.035101817497	7.073172570569
6	93255	27986.669461647183	1.974035517126
6	93284	27994.755368688092	1.810790612549
6	93290	27997.401597039163	9.215006365784
6	93315	28004.927699153446	1.740154879913
6	93500	28056.701112736337	1.284642432258
6	93513	28062.013762758248	40.052017025773
6	93610	28089.241855746641	11.220722487714
6	93667	28103.162764117813	13.459329680051
6	93715	28116.069047431406	6.10529682444
6	93747	28124.422409387622	9.043355016814
6	93825	28148.576063078773	7.145960283485
6	93873	28161.573392647076	9.310967967119
6	93917	28174.594084818419	13.024162028448
6	93966	28188.541314791833	47.866826454387
6	93985	28193.090006300193	1.258484382741
6	93993	28196.235525157993	5.412381866614
6	94041	28211.362878984157	10.644587918424
6	94067	28217.063868538607	5.801784399621
6	94124	28234.468054448941	9.625570644372
6	94140	28240.429396371113	39.260910011488
6	94150	28243.555665389577	1.612756062485
6	94158	28247.308696675802	47.034446140978
6	94198	28261.363401308413	11.959311951057
6	94247	28276.172787532715	7.980581904811
6	94284	28284.739337428418	1.70408063028
6	94370	28309.80516520938	26.729256792378
6	94443	28330.594825473559	1.395772942342
6	94546	28360.395294643324	1.666407838464
6	94576	28370.92496370593	1.983760826848
6	94593	28376.046020221654	1.421207109094
6	94656	28392.576472421493	43.531773272931
6	94802	28437.304125239271	9.517972340247
6	94829	28445.502024719621	75.959926800601
6	94943	28479.820745876935	15.740782809048
6	94946	28481.778098233175	1.95735235624
6	95031	28509.592694201823	1.85374122858
6	95091	28528.088094728012	1.564443342388
6	95136	28542.302872585451	13.469342688411
6	95231	28571.697164061052	12.267926642006
6	95247	28577.449871155192	1.500850659236
6	95301	28593.738476233129	53.454146946134
6	95405	28620.334893501497	1.373916177824
6	95413	28623.53899995549	1.687880889513
6	95526	28657.095619291202	1.547164309397
6	95552	28663.234874674068	3.299962262077
6	95609	28681.509326040135	10.950466069219
6	95772	28733.052941011775	1.901584738493
6	95796	28739.197011887606	3.783990985096
6	95854	28759.33435938968	1.977775023505
6	95926	28781.46974024451	16.689947295015
6	95967	28793.637245374869	19.08488393137
6	96038	28813.486482172596	1.65769311022
6	96058	28820.214372387665	20.737239587724
6	96158	28849.186806329291	1.264688915759
6	96249	28876.555132061008	36.060179311389
6	96274	28884.041006302599	6.665419678052
6	96394	28918.882703887066	1.816780121066
6	96446	28937.522929869545	7.003441208372
6	96504	28954.032999714975	3.988458557899
6	96589	28979.257833211448	16.149161623565
6	96696	29008.684500591968	3.215447371515
6	96705	29013.49890340953	16.08924868138
6	96722	29018.588792306509	1.570272525027
6	96752	29028.309379005384	5.487383831717
6	96785	29038.583457249542	1.461595546082
6	96796	29040.037970079434	27.69541423657
6	96867	29060.776189477136	5.132640065761
6	96900	29071.588142041816	6.002698197208
6	96950	29087.7684435274	1.802702436782
6	96955	29089.459866103671	1.691422576271
6	97006	29103.597091005698	1.694902080111
6	97011	29105.216728057668	22.474427025147
6	97075	29127.587660910704	8.306947085228
6	97080	29129.039237883643	5.665785467605
6	97104	29135.318178131573	27.567303405179
6	97174	29154.678090389402	10.684818806446
6	97182	29157.712978424647	4.015868265775
6	97341	29206.42259808551	34.303952024533
6	97355	29210.088202104861	10.295501964993
6	97366	29214.850141334118	1.343745838664
6	97374	29218.275673761548	3.473694127123
6	97389	29223.101546808661	21.437430976533
6	97417	29233.298565313548	3.938204191094
6	97454	29243.752935636186	1.574449002184
6	97464	29247.057440089018	1.985152546875
6	97489	29255.039688593478	13.231711824242
6	97562	29276.31149541545	43.965738056503
6	97573	29280.86644719127	7.185984682256
6	97618	29294.642619614818	19.691415183233
6	97822	29356.398053375957	1.230782470852
6	97975	29403.3526265712	4.222728263809
6	97981	29406.110498015909	10.953500134284
6	98002	29410.376156907296	18.253984550468
6	98052	29426.406420641905	13.314677645109
6	98062	29429.706612334913	20.326819028048
6	98145	29458.346131953739	1.323358903453
6	98152	29460.335779736892	12.981305059248
6	98332	29511.211810399364	6.619663342952
6	98437	29543.687725394365	1.63723752033
6	98535	29570.764373343583	1.909258568287
6	98554	29578.752980425541	4.969526421622
6	98733	29628.258504226764	1.363639937527
6	98751	29635.348118544143	45.748151166176
6	98835	29661.109718717966	1.265335419774
6	98895	29677.400753333938	8.359745958058
6	98960	29696.657983297629	18.47247491728
6	99009	29712.433501009605	4.518220669407
6	99133	29747.1334597373	10.970022198144
6	99165	29757.513062510974	3.646186408064
6	99200	29768.636048579178	4.044916883291
6	99277	29790.729733557775	1.628997164033
6	99287	29793.700314233042	3.773697579701
6	99295	29797.068766309469	9.590182046115
6	99356	29816.490644248536	23.361800956912
6	99406	29831.934559061712	3.85264973843
6	99414	29834.791977164855	6.991743634779
6	99454	29848.067464447728	1.857237496227
6	99586	29886.977357651255	3.533009354083
6	99681	29918.540820658356	7.363916445213
6	99710	29926.436266349778	1.582502060011
6	99793	29950.763190422916	33.924221329963
6	99872	29974.854984402063	3.751780152839
6	99877	29976.331163123215	1.476178721152
6	99883	29979.398033583688	20.194292966118

