version 2
run Third_exit_9-11-20191017-13:44:32-2067
attr configname Third_exit_9
attr datetime 20191017-13:44:32
attr experiment Third_exit_9
attr inifile omnetpp.ini
attr iterationvars ""
attr iterationvarsf ""
attr measurement ""
attr network ResponseTimeNetwork
attr processid 2067
attr repetition 11
attr replication #11
attr resultdir results
attr runnumber 11
attr seedset 11
param **.Source.interArrivalTime exponential(6s)
param **.jobPriority bernoulli(0.8)
param **.PS.serviceTimeU1 "uniform(1.2s, 2.0s)"
param **.PS.serviceTimeU2 "uniform(2.4s, 2.8s)"
param **.SS1.serviceTime exponential(1.4s)
param **.SS2.serviceTime exponential(2s)
param **.PS.exitProbability bernoulli(0.9)

vector 0 ResponseTimeNetwork.SS1 queueLength:vector ETV
attr interpolationmode sample-hold
attr title "queue length, vector"
vector 1 ResponseTimeNetwork.SS2 queueLength:vector ETV
attr interpolationmode sample-hold
attr title "queue length, vector"
vector 2 ResponseTimeNetwork.QueueU1 queueLength:vector ETV
attr interpolationmode sample-hold
attr title "queue length, vector"
vector 3 ResponseTimeNetwork.QueueU2 queueLength:vector ETV
attr interpolationmode sample-hold
attr title "queue length, vector"
vector 4 ResponseTimeNetwork.sink lifeTimeU1:vector ETV
attr interpolationmode none
attr title "lifetime of arrived jobs U1, vector"
attr unit s
vector 5 ResponseTimeNetwork.sink lifeTime:vector ETV
attr interpolationmode none
attr title "lifetime of arrived jobs, vector"
attr unit s
2	0	0	0
2	5	1.617189857511	1
2	6	2.92445558348	0
2	20	7.510471102994	1
2	21	8.435930482924	0
2	25	9.336683390807	1
2	26	10.316566551358	0
2	30	11.492049011452	1
2	31	11.603555408001	0
2	35	12.513489947236	1
2	36	13.431866381384	0
2	45	16.638688350469	1
2	47	16.66766318431	2
2	48	16.975883980357	1
2	51	18.966747268923	0
2	60	21.615820407152	1
2	62	22.564437060833	2
2	63	23.387344792313	1
2	66	24.73910695707	0
2	70	25.174399120416	1
2	72	25.340162072475	2
2	73	26.102314460292	1
2	76	27.426430364713	0
2	80	28.133346248215	1
2	81	29.246294854969	0
2	85	29.414556064292	1
2	86	30.490833796762	0
2	90	31.555553462312	1
2	91	31.726757656239	0
2	95	32.274626602833	1
2	99	33.092567404154	2
2	100	33.605140857413	1
2	104	34.382617324296	2
2	105	35.247047916628	1
2	109	35.371131043173	2
2	110	36.818972722828	1
2	113	38.289415962822	0
2	120	40.38789423461	1
2	122	41.416313928959	2
2	124	41.47785174307	3
2	125	41.518464305825	2
2	131	42.112786997836	3
2	133	42.651413303797	4
2	134	43.099626841038	3
2	138	43.201801885378	4
2	141	44.304426587946	3
2	145	45.492335281492	4
2	147	45.888873261158	5
2	148	46.228746838696	4
2	152	47.383918392713	5
2	153	48.087575747087	4
2	157	48.160389400315	5
2	158	49.576762578092	4
2	162	49.835630490494	5
2	163	50.98735225556	4
2	166	52.773612520672	3
2	169	54.023922617189	2
2	172	55.240509003415	1
2	176	56.276858317847	2
2	177	57.056947453334	1
2	180	58.428790320843	0
2	184	58.455226929205	1
2	186	60.31270825123	2
2	187	60.389676678195	1
2	191	60.883317234566	2
2	193	61.599239650783	3
2	194	61.991094762846	2
2	198	62.612483838611	3
2	199	63.488627832583	2
2	203	63.73034085539	3
2	204	65.300220714337	2
2	208	66.780469912871	3
2	209	67.020845188773	2
2	213	67.078277634981	3
2	214	68.7346170772	2
2	217	70.300546419261	1
2	220	71.728130491836	0
2	224	72.159217044764	1
2	226	73.154327125393	2
2	227	73.511162319606	1
2	231	73.724144675754	2
2	232	75.200467912307	1
2	235	76.472135723768	0
2	242	78.825624951659	1
2	244	78.852971003344	2
2	246	79.063392285188	3
2	247	79.192923661148	2
2	252	80.70435902608	1
2	256	81.059311882521	2
2	257	82.24701413588	1
2	261	82.944953952781	2
2	263	83.650096763021	3
2	264	83.781944881951	2
2	268	84.291662218095	3
2	269	85.117167927896	2
2	272	86.909500680504	1
2	276	87.900103402985	2
2	277	88.36486831793	1
2	281	89.755187427048	2
2	283	90.113640984929	3
2	284	90.265103977187	2
2	287	91.877398810363	1
2	291	92.522754624669	2
2	292	93.234442312284	1
2	296	94.56596218655	2
2	298	94.61863447076	3
2	299	94.701708627692	2
2	303	95.425287643972	3
2	305	95.584054996937	4
2	306	96.156804824448	3
2	310	96.3793477764	4
2	312	96.760055630021	5
2	313	97.883758703819	4
2	317	98.499992052259	5
2	319	98.844258847015	6
2	320	99.288268150216	5
2	323	101.218925183838	4
2	327	101.897775220702	5
2	329	102.705079841653	6
2	330	103.120271155623	5
2	334	103.254484089081	6
2	335	104.450846575399	5
2	339	105.056910081312	6
2	340	105.719402421464	5
2	344	106.309023008396	6
2	345	107.034265336779	5
2	349	107.140946244747	6
2	351	108.190042221492	7
2	352	109.01343994384	6
2	356	109.452699954684	7
2	357	110.457536702988	6
2	362	112.159134956089	5
2	365	113.786090139498	4
2	369	114.06969545689	5
2	370	115.714987469849	4
2	374	116.196691056147	5
2	376	116.668399890949	6
2	377	117.282204741438	5
2	381	118.122855826902	6
2	382	119.194450101827	5
2	386	119.979390331244	6
2	387	120.973579111893	5
2	391	121.702425542583	6
2	393	121.936817890808	7
2	394	122.571576194849	6
2	398	123.401466965919	7
2	399	124.129793121118	6
2	403	125.713358764287	7
2	404	125.9204722833	6
2	407	127.86640325674	5
2	410	129.73895160352	4
2	414	130.678485941486	5
2	415	131.040590207662	4
2	418	132.571912575524	3
2	421	134.366604208398	2
2	425	134.950903252655	3
2	427	135.477877335497	4
2	428	135.806748984392	3
2	432	135.881559116701	4
2	434	136.262727352762	5
2	436	137.106446383451	6
2	437	137.336594836424	5
2	441	138.34185683647	6
2	442	138.929318611148	5
2	445	140.256338219541	4
2	449	141.841714260555	5
2	450	142.183499591063	4
2	454	142.204060149215	5
2	456	142.70725669195	6
2	458	143.77228064928	7
2	459	143.953869929548	6
2	463	144.369903098032	7
2	464	145.263057541486	6
2	468	145.482240995296	7
2	469	147.198902302805	6
2	473	148.195796653697	7
2	474	148.70711832476	6
2	477	150.195106315251	5
2	481	150.296055724673	6
2	482	151.431802477698	5
2	486	152.561985061638	6
2	487	152.660082008886	5
2	491	153.392776642119	6
2	492	154.378519186946	5
2	496	154.454658580011	6
2	497	156.174316673363	5
2	501	157.794719867154	6
2	502	157.939024080718	5
2	506	158.018348266193	6
2	507	159.149024129668	5
2	511	159.193958560825	6
2	512	161.140289059663	5
2	516	161.538942641923	6
2	517	162.350935211228	5
2	521	162.692855231922	6
2	522	164.334689854095	5
2	525	166.148462883765	4
2	529	166.945141612793	5
2	531	166.996160980323	6
2	532	167.984989187876	5
2	535	169.33482665495	4
2	538	170.577370518269	3
2	542	170.848618346021	4
2	544	172.226216267383	5
2	545	172.268546780767	4
2	549	173.166238599535	5
2	550	173.667808058495	4
2	553	175.156271965811	3
2	556	176.553870485546	2
2	562	177.304010152251	3
2	563	177.796231980072	2
2	567	178.429401981941	3
2	568	179.566370172994	2
2	573	181.331288279602	1
2	577	182.135054813215	2
2	579	182.685705531986	3
2	580	183.182840978363	2
2	584	183.827494237309	3
2	586	184.144194797055	4
2	587	184.914479007767	3
2	590	186.746969829136	2
2	594	187.755451849604	3
2	595	188.083601949373	2
2	599	188.383354919706	3
2	600	189.822394064637	2
2	603	191.295319641577	1
2	607	191.928471611588	2
2	608	192.657583627114	1
2	612	193.348150418504	2
2	613	194.11388158557	1
2	617	194.88818808087	2
2	618	195.336067710826	1
2	622	195.583898698843	2
2	624	195.990017638997	3
2	626	196.662269226943	4
2	627	196.946924373144	3
2	631	198.29263611203	4
2	632	198.601569040315	3
2	636	199.095152169382	4
2	637	200.221041701371	3
2	641	200.376735095981	4
2	643	200.536700336854	5
2	647	201.596801631386	6
2	648	202.143159647109	5
2	652	202.36046595619	6
2	654	202.572637253021	7
2	656	203.824683947648	8
2	657	203.866625817316	7
2	661	204.948003956678	8
2	662	205.113073012987	7
2	666	205.313339695567	8
2	668	205.329908676754	9
2	670	205.72119654785	10
2	672	206.82175323455	11
2	673	206.931103214258	10
2	676	208.253238735357	9
2	679	209.878641740055	8
2	682	211.404744748966	7
2	686	211.543742685606	8
2	688	211.898134464719	9
2	689	213.322357075297	8
2	693	213.781950171681	9
2	695	214.703818491505	10
2	696	215.137404311456	9
2	700	215.253365342936	10
2	702	215.544518369778	11
2	703	216.464802940198	10
2	707	216.733135606463	11
2	708	218.061755488262	10
2	712	218.277525417597	11
2	714	219.318090379599	12
2	715	219.638171524749	11
2	720	220.971676670768	10
2	723	222.354169948407	9
2	727	222.912723523891	10
2	728	223.818197420061	9
2	732	224.076651600346	10
2	735	225.603867072247	9
2	739	226.548899830789	10
2	741	227.080546495055	11
2	742	227.410979155272	10
2	746	228.40060694268	11
2	748	228.901274641556	12
2	749	229.104583645247	11
2	753	229.381505787985	12
2	755	230.621009264855	13
2	757	230.828122312664	14
2	758	231.01467891299	13
2	761	232.916717564881	12
2	765	233.450707632935	13
2	767	234.315117110307	14
2	768	234.754053135596	13
2	772	234.892418369619	14
2	774	235.154026315586	15
2	776	235.7659868308	16
2	777	236.231009709656	15
2	781	236.780866747905	16
2	782	238.202985365696	15
2	786	238.994405356539	16
2	787	239.839613630816	15
2	791	239.86557063782	16
2	792	241.434795517668	15
2	795	243.036531345181	14
2	798	244.859645929009	13
2	802	245.082778011416	14
2	804	246.071484379961	15
2	805	246.455296836987	14
2	808	248.32672756315	13
2	811	249.665403582722	12
2	814	251.088024834365	11
2	818	252.11292524859	12
2	819	252.675343136497	11
2	827	254.45953411269	12
2	828	254.637910059288	11
2	832	255.523254551726	12
2	835	256.380589707576	11
2	839	256.586002987468	12
2	841	256.759317490157	13
2	842	257.724425195724	12
2	846	257.778570178713	13
2	848	257.818259246651	14
2	850	258.347209238484	15
2	851	259.229121570669	14
2	854	261.209750079371	13
2	858	261.47004753859	14
2	860	262.325743602971	15
2	862	262.625841788203	16
2	863	263.098735620275	15
2	869	264.446776916968	16
2	870	264.910385941908	15
2	876	265.414630491238	16
2	878	266.382260909389	17
2	881	266.897729322322	16
2	885	267.341971918214	17
2	886	268.795770402074	16
2	890	268.842814207623	17
2	892	269.667108934991	18
2	894	270.230700780207	19
2	895	270.459342413589	18
2	899	270.908265386013	19
2	900	271.758647607833	18
2	904	271.900510363789	19
2	905	273.593317040995	18
2	909	273.852041713676	19
2	910	275.31230429747	18
2	914	275.771931546154	19
2	916	276.58379360321	20
2	917	276.814292141803	19
2	920	278.111092513249	18
2	924	278.238258894984	19
2	925	279.740223116995	18
2	928	280.992822644868	17
2	932	281.172648432764	18
2	934	281.444931428701	19
2	936	282.360288981587	20
2	937	282.727649184511	19
2	941	283.229257989931	20
2	943	283.65275277248	21
2	944	284.249366034576	20
2	948	285.345561136541	21
2	949	285.510199131825	20
2	952	286.908879336909	19
2	955	288.775527268842	18
2	958	290.275864596114	17
2	962	290.775165124919	18
2	964	290.779461482091	19
2	966	290.85512401003	20
2	967	291.688415369586	19
2	971	291.939225099285	20
2	972	293.339472443432	19
2	976	293.951437914223	20
2	978	294.668925871645	21
2	979	295.053858894304	20
2	983	295.227462215832	21
2	984	296.821843667336	20
2	988	298.120586379517	21
2	989	298.477478702374	20
2	995	299.787975857659	21
2	996	300.050375112899	20
2	999	301.48540081811	19
2	1003	302.17196520414	20
2	1004	302.967085847639	19
2	1008	303.532411317248	20
2	1010	304.40971512223	21
2	1011	304.820375734762	20
2	1014	306.335659846299	19
2	1017	308.040184858636	18
2	1021	308.672988857876	19
2	1022	309.896949480482	18
2	1025	311.231731972851	17
2	1029	311.302622442656	18
2	1031	311.693773553794	19
2	1033	312.502962668751	20
2	1034	312.649536998578	19
2	1037	313.994610599809	18
2	1041	315.030587299419	19
2	1042	315.670800454178	18
2	1045	317.144558699438	17
2	1049	318.205774268527	18
2	1050	319.109661850528	17
2	1054	319.689263444389	18
2	1055	320.424930071094	17
2	1059	320.665532359624	18
2	1061	320.763509634044	19
2	1063	321.222398984617	20
2	1065	321.454252356569	21
2	1067	322.208316628764	22
2	1068	322.406314782062	21
2	1072	323.620804928942	22
2	1073	323.727873764568	21
2	1077	324.68485382606	22
2	1079	324.934932222742	23
2	1080	325.105753030823	22
2	1084	325.410848984239	23
2	1085	326.724700259426	22
2	1088	328.269285026574	21
2	1092	329.780886700735	22
2	1093	329.964613726371	21
2	1096	331.254004480139	20
2	1099	333.227976446421	19
2	1103	333.597813925275	20
2	1104	334.68247172852	19
2	1108	336.020405214428	20
2	1109	336.326407577293	19
2	1112	338.294882508004	18
2	1116	339.958928742499	19
2	1117	340.055411631437	18
2	1121	341.641277285162	19
2	1123	341.701177163265	20
2	1124	341.97557044589	19
2	1128	342.795349153668	20
2	1129	343.670129444087	19
2	1133	344.420548260758	20
2	1135	344.448797104361	21
2	1137	345.143225145881	22
2	1138	345.347275529997	21
2	1141	346.640461799698	20
2	1144	348.201982767703	19
2	1148	348.327897894501	20
2	1150	348.810822180012	21
2	1152	350.075083291799	22
2	1153	350.153715794729	21
2	1157	350.973761839735	22
2	1159	351.060811116529	23
2	1160	351.538216720344	22
2	1164	351.555283957063	23
2	1166	352.159304055317	24
2	1168	352.38187449238	25
2	1170	352.613284128572	26
2	1171	353.179402965502	25
2	1175	354.564234018846	26
2	1177	354.572809033003	27
2	1178	354.739857651861	26
2	1182	355.707631409897	27
2	1184	355.947872069402	28
2	1185	356.485284197153	27
2	1189	357.325540606587	28
2	1191	357.496827381179	29
2	1192	357.895633941339	28
2	1196	358.731030507148	29
2	1198	359.004608945617	30
2	1199	359.119934550868	29
2	1202	360.87898280398	28
2	1206	361.225319008251	29
2	1208	361.296751441351	30
2	1209	362.859139296794	29
2	1212	364.133270904058	28
2	1216	365.072064339092	29
2	1217	365.833881575437	28
2	1220	367.499535864601	27
2	1223	369.234461995596	26
2	1227	369.829223302197	27
2	1228	370.608196182745	26
2	1232	371.503516498763	27
2	1233	371.837716708528	26
2	1237	372.57419752752	27
2	1238	373.398838830935	26
2	1241	374.973879279392	25
2	1245	375.713960408958	26
2	1246	376.521055217283	25
2	1249	378.022649274217	24
2	1253	378.161273107494	25
2	1255	378.836089446227	26
2	1256	379.529626267599	25
2	1260	379.708628862101	26
2	1261	381.435310955355	25
2	1264	382.723093071031	24
2	1268	384.006658985895	25
2	1270	384.142343798909	26
2	1271	384.409435065287	25
2	1275	385.051607030879	26
2	1277	385.995536197091	27
2	1278	386.101968752789	26
2	1281	387.662679017718	25
2	1285	387.882381585058	26
2	1287	388.481351565452	27
2	1289	388.726820164762	28
2	1290	388.989507649663	27
2	1294	389.099424556433	28
2	1295	390.361361220862	27
2	1298	391.729064834128	26
2	1302	392.625583434359	27
2	1303	393.250614375259	26
2	1307	394.238564203643	27
2	1308	395.248194768104	26
2	1312	395.55777861102	27
2	1314	395.605132096087	28
2	1316	395.904585224639	29
2	1318	396.248568495423	30
2	1319	396.534544890384	29
2	1323	397.106694099775	30
2	1324	398.147470890927	29
2	1328	399.370345453908	30
2	1330	399.416821713595	31
2	1331	399.500043390143	30
2	1334	400.995809149194	29
2	1338	401.753078823446	30
2	1340	402.001180560921	31
2	1341	402.345989705447	30
2	1345	402.460486518666	31
2	1347	402.916049867055	32
2	1349	403.549917751884	33
2	1350	403.565969337348	32
2	1354	404.528843526725	33
2	1356	404.978890993345	34
2	1357	405.5266710844	33
2	1361	406.592932340679	34
2	1362	407.291284454625	33
2	1365	408.684861143131	32
2	1369	409.245825103163	33
2	1370	410.475952605915	32
2	1373	412.139858827752	31
2	1376	413.694703669486	30
2	1380	413.875797617021	31
2	1382	415.30665029353	32
2	1384	415.313332781852	33
2	1385	415.324142688339	32
2	1390	417.195636188251	31
2	1393	419.189519693715	30
2	1399	419.80961151236	31
2	1400	420.580185078842	30
2	1404	421.245591717769	31
2	1405	422.198413296615	30
2	1409	422.305732801967	31
2	1411	422.999971431915	32
2	1413	423.076733502236	33
2	1414	423.615678346728	32
2	1418	425.159547700477	33
2	1419	425.536353464809	32
2	1423	426.750964903813	33
2	1424	427.071943092917	32
2	1427	428.519681104285	31
2	1431	428.719441597101	32
2	1432	429.937508140703	31
2	1436	431.073443377341	32
2	1438	431.124943760252	33
2	1441	431.672183061403	32
2	1444	432.980129311991	31
2	1447	434.379714171228	30
2	1451	434.75381294077	31
2	1453	435.209476764305	32
2	1454	435.681320039568	31
2	1458	436.007802762626	32
2	1459	437.363411561412	31
2	1463	437.713565317387	32
2	1464	438.588100469125	31
2	1467	440.422605421779	30
2	1470	441.872029118066	29
2	1474	442.351950430026	30
2	1476	442.548628163596	31
2	1477	443.709288412531	30
2	1480	445.496737902437	29
2	1484	445.922287703879	30
2	1485	447.184586861555	29
2	1489	447.975961807154	30
2	1490	449.074060794723	29
2	1494	449.17379478334	30
2	1495	450.911081763741	29
2	1498	452.458963581186	28
2	1502	453.43522365856	29
2	1503	453.763740126614	28
2	1507	454.396100441562	29
2	1509	454.463940688337	30
2	1510	455.265392691654	29
2	1513	456.520580113319	28
2	1517	456.802557769561	29
2	1519	456.857701330892	30
2	1522	457.894584385877	29
2	1526	459.123143059455	30
2	1527	459.254604525504	29
2	1531	459.421937343244	30
2	1532	460.732149347117	29
2	1536	460.907914952029	30
2	1538	460.934929155462	31
2	1540	461.006398507583	32
2	1542	462.087732374874	33
2	1543	462.567303212559	32
2	1546	464.094043342037	31
2	1550	464.839529000099	32
2	1552	465.00652229958	33
2	1553	465.918611927157	32
2	1557	465.947138184628	33
2	1561	467.035954403506	34
2	1563	467.583652357296	35
2	1565	467.624283875481	36
2	1566	467.73842450959	35
2	1569	469.534732522642	34
2	1574	471.098427776633	33
2	1578	471.202009472184	34
2	1580	471.646487724305	35
2	1581	472.403295093788	34
2	1584	474.005104482187	33
2	1587	475.943502619503	32
2	1591	476.541169450922	33
2	1593	477.434550398171	34
2	1594	477.67108209209	33
2	1598	478.652080721483	34
2	1599	479.491182812131	33
2	1603	479.621330107383	34
2	1605	479.899141188478	35
2	1607	480.006986684386	36
2	1608	481.047868337869	35
2	1612	482.188450332682	36
2	1614	482.242587526851	37
2	1616	482.439206044695	38
2	1617	482.651384081706	37
2	1620	484.469825924947	36
2	1624	485.522220476311	37
2	1625	485.778697276129	36
2	1628	487.509321186891	35
2	1633	488.872582731409	34
2	1636	490.307458896948	33
2	1639	492.018179228915	32
2	1642	493.830330462022	31
2	1646	494.248651795728	32
2	1647	495.112965392893	31
2	1651	496.012916749456	32
2	1653	496.117330594454	33
2	1654	496.497704698531	32
2	1658	496.739016188398	33
2	1659	497.950411771251	32
2	1663	499.350770216312	33
2	1665	499.358721092657	34
2	1666	499.424056310592	33
2	1669	500.990817910446	32
2	1673	502.033783331528	33
2	1674	502.557117737284	32
2	1677	503.908861050023	31
2	1681	504.950423458287	32
2	1682	505.314809611453	31
2	1686	505.6515985705	32
2	1687	507.054508130638	31
2	1691	507.938091620378	32
2	1693	508.645383218982	33
2	1694	508.691470762914	32
2	1697	510.01668165849	31
2	1701	510.316209259884	32
2	1703	510.631087486076	33
2	1705	511.093863681493	34
2	1707	511.183066988916	35
2	1708	511.393834107755	34
2	1712	512.690255459065	35
2	1714	512.884952872588	36
2	1716	512.905467132269	37
2	1717	513.048327693543	36
2	1721	513.614815710067	37
2	1723	513.725561344691	38
2	1724	514.858158507025	37
2	1728	515.344157611757	38
2	1729	516.384837194732	37
2	1732	517.844944995469	36
2	1737	519.205675578131	35
2	1741	519.762294849221	36
2	1742	520.662323812595	35
2	1746	520.792452753982	36
2	1748	521.699473588429	37
2	1749	522.172940617254	36
2	1753	522.616687170154	37
2	1754	523.990535281984	36
2	1757	525.623416706188	35
2	1760	527.126780808917	34
2	1764	528.081849648412	35
2	1765	528.72318594662	34
2	1769	529.171993159217	35
2	1771	529.326451791161	36
2	1772	530.331272665611	35
2	1776	530.613086803994	36
2	1778	530.917137569102	37
2	1781	531.721858374415	36
2	1785	531.736826783398	37
2	1787	532.026241115343	38
2	1789	532.657396107411	39
2	1790	533.511372738531	38
2	1794	533.632896593745	39
2	1796	534.514291393396	40
2	1798	534.926219469762	41
2	1799	535.455026668323	40
2	1803	535.987461700902	41
2	1804	537.185192411778	40
2	1808	537.28492271284	41
2	1809	539.121837443498	40
2	1813	539.496016096394	41
2	1814	540.356547602464	40
2	1818	541.447566023199	41
2	1819	542.248854905937	40
2	1823	542.541985094131	41
2	1824	544.068395467114	40
2	1828	544.395718876229	41
2	1829	545.837193573091	40
2	1833	546.580661959915	41
2	1834	547.510781523596	40
2	1838	547.781250406912	41
2	1839	549.324822662036	40
2	1843	550.25828054103	41
2	1844	550.855271208669	40
2	1848	551.028895770878	41
2	1849	552.096316626306	40
2	1853	553.125860770879	41
2	1854	553.651107472751	40
2	1858	554.412866701376	41
2	1859	555.501742607739	40
2	1863	555.741749785824	41
2	1867	556.363705553982	42
2	1868	556.800075010967	41
2	1871	558.683002962742	40
2	1874	560.339238721143	39
2	1878	560.561931879847	40
2	1880	560.811777726475	41
2	1881	562.243950496997	40
2	1884	563.511422412294	39
2	1888	564.712403944663	40
2	1889	564.934657901722	39
2	1893	566.436855945291	40
2	1894	566.635137853409	39
2	1897	568.390922672125	38
2	1900	570.331462724517	37
2	1904	570.658242236312	38
2	1906	570.829734614268	39
2	1908	571.160729222399	40
2	1911	572.319669334228	39
2	1914	574.007157327059	38
2	1918	574.062567795547	39
2	1919	575.862898872244	38
2	1923	576.360082529905	39
2	1925	576.981973166692	40
2	1927	577.252807105035	41
2	1929	577.426012459817	42
2	1930	577.452348219427	41
2	1933	579.199091301868	40
2	1937	579.905735208656	41
2	1938	580.48842473534	40
2	1942	580.567669144115	41
2	1944	580.891620839932	42
2	1946	580.925573879071	43
2	1948	581.001511907799	44
2	1949	582.332347607623	43
2	1952	583.777677145424	42
2	1958	584.697218946034	43
2	1959	585.507716936442	42
2	1963	586.424491496129	43
2	1964	586.919327726039	42
2	1967	588.457058558623	41
2	1970	590.058977132114	40
2	1974	590.933393697424	41
2	1975	591.515855153473	40
2	1979	592.153436521641	41
2	1980	592.776780976737	40
2	1983	594.458667135621	39
2	1987	595.250048057236	40
2	1989	595.364558571899	41
2	1990	595.873244348737	40
2	1994	596.196191369545	41
2	1996	596.447835751025	42
2	1998	596.597473602445	43
2	1999	597.397124516601	42
2	2003	598.267983689739	43
2	2004	599.291457309397	42
2	2008	600.573775021459	43
2	2010	600.797518940984	44
2	2011	601.019334139125	43
2	2015	601.780724777806	44
2	2016	602.823383877994	43
2	2020	603.381963628439	44
2	2021	604.159646150665	43
2	2025	604.647583540151	44
2	2026	605.854620881388	43
2	2030	606.527399974998	44
2	2031	607.729030214073	43
2	2034	609.384321060972	42
2	2038	609.823091670544	43
2	2040	609.938374457312	44
2	2043	611.249831118444	43
2	2047	611.430558218671	44
2	2049	611.990855242657	45
2	2050	612.45315095746	44
2	2054	613.188336633719	45
2	2055	614.15228796416	44
2	2058	616.047313400368	43
2	2062	616.143638967952	44
2	2064	616.628245881321	45
2	2065	617.476608364294	44
2	2069	618.858923863474	45
2	2070	619.333655803661	44
2	2073	620.553519503783	43
2	2076	622.494302614603	42
2	2080	623.090956088644	43
2	2082	624.241208891624	44
2	2084	624.445169885562	45
2	2085	624.451956484292	44
2	2089	624.700287152964	45
2	2091	625.911902503868	46
2	2092	626.327780384209	45
2	2096	626.404655286136	46
2	2097	627.747063884709	45
2	2101	628.29792850412	46
2	2102	629.115041797433	45
2	2106	629.205907063479	46
2	2108	629.68527857402	47
2	2109	630.938351846684	46
2	2112	632.72185628229	45
2	2116	633.739679660342	46
2	2118	634.139308803419	47
2	2119	634.147318892751	46
2	2123	634.185637307968	47
2	2124	635.40174089988	46
2	2127	636.930006428447	45
2	2131	637.953623694569	46
2	2133	638.06813461144	47
2	2134	638.359500673611	46
2	2138	638.465542788856	47
2	2140	638.598698956935	48
2	2141	640.244149206963	47
2	2145	640.585458642525	48
2	2146	641.83942586222	47
2	2151	643.132288497512	46
2	2155	643.197084863133	47
2	2157	644.49231930654	48
2	2158	644.996463887592	47
2	2162	645.267350945204	48
2	2163	646.403087589716	47
2	2167	646.533986890741	48
2	2169	647.013821708594	49
2	2170	648.397721239564	48
2	2174	648.778828782057	49
2	2175	649.707005962369	48
2	2179	649.914398642537	49
2	2181	649.98191097826	50
2	2183	650.226318924788	51
2	2184	651.634859381814	50
2	2187	653.119306667906	49
2	2190	654.730995065731	48
2	2194	655.605918260639	49
2	2195	656.503302411561	48
2	2201	657.192121844673	49
2	2203	657.873973160586	50
2	2204	658.4394796705	49
2	2208	659.02984890489	50
2	2209	659.682949371649	49
2	2213	660.614334845578	50
2	2214	661.398248822628	49
2	2218	662.752060369496	50
2	2219	663.267542515522	49
2	2223	663.583739612844	50
2	2224	664.756464005461	49
2	2228	665.979091966154	50
2	2229	666.469367302967	49
2	2233	668.100950760961	50
2	2234	668.29386191537	49
2	2238	668.670652080663	50
2	2239	670.194593948138	49
2	2243	670.363490523126	50
2	2244	672.107771264588	49
2	2248	672.388753015507	50
2	2249	673.998778148567	49
2	2253	675.326557194404	50
2	2254	675.658467423742	49
2	2257	677.138153617283	48
2	2261	678.376860830778	49
2	2262	678.649083323044	48
2	2266	679.103342599788	49
2	2267	680.395003074234	48
2	2270	681.966869208788	47
2	2274	683.359224512162	48
2	2275	683.453856909101	47
2	2279	683.947728281804	48
2	2280	684.765346704436	47
2	2283	686.471701536526	46
2	2286	688.249997671892	45
2	2289	689.939793862042	44
2	2292	691.806907729258	43
2	2296	693.077730051799	44
2	2297	693.557605677855	43
2	2301	694.86394018411	44
2	2302	695.108629600716	43
2	2305	696.975076309976	42
2	2309	697.244749970854	43
2	2310	698.815249552962	42
2	2313	700.026061581087	41
2	2316	701.804920790356	40
2	2320	701.93410912866	41
2	2322	702.613875778026	42
2	2324	703.095142044387	43
2	2325	703.571255766984	42
2	2328	704.845606214005	41
2	2332	705.381679762439	42
2	2333	706.309677751746	41
2	2337	706.842951871805	42
2	2339	707.674317899513	43
2	2341	707.680285920692	44
2	2342	708.068663628038	43
2	2346	708.18664763542	44
2	2348	709.722130066439	45
2	2349	709.78560409398	44
2	2353	710.897458178757	45
2	2354	711.759194221359	44
2	2358	712.591837570917	45
2	2359	713.684633278486	44
2	2362	715.127211682697	43
2	2365	717.031548917306	42
2	2369	717.467528994967	43
2	2370	718.473852425826	42
2	2374	718.504869497387	43
2	2376	719.245000258466	44
2	2378	719.394181029238	45
2	2379	720.188190547948	44
2	2382	721.709406914947	43
2	2388	722.795207303926	44
2	2389	723.668398349558	43
2	2393	724.064050121573	44
2	2394	725.224028666702	43
2	2397	727.16332995483	42
2	2401	727.739050174402	43
2	2402	729.121437341918	42
2	2406	729.171707308828	43
2	2408	730.105077441971	44
2	2409	730.722761936125	43
2	2412	731.925891303842	42
2	2415	733.516569589091	41
2	2419	733.535934115872	42
2	2421	734.050062030284	43
2	2422	735.475196934876	42
2	2426	735.516132533446	43
2	2428	736.612103436956	44
2	2429	736.846030209039	43
2	2433	738.552694549381	44
2	2434	738.625447076571	43
2	2438	739.765401238777	44
2	2439	740.500999886368	43
2	2443	741.874017754584	44
2	2444	742.323165874567	43
2	2448	743.87211621077	44
2	2449	743.88158875202	43
2	2452	745.110842142451	42
2	2456	745.840821635559	43
2	2457	746.475263768259	42
2	2461	747.109023374194	43
2	2463	747.425015117703	44
2	2464	747.680119598295	43
2	2468	749.091291883341	44
2	2469	749.414993677299	43
2	2472	750.628820375736	42
2	2476	750.79225223333	43
2	2478	750.882880086522	44
2	2480	751.411268925357	45
2	2481	752.433866877864	44
2	2484	754.243814387928	43
2	2488	754.529653525101	44
2	2489	755.616261364158	43
2	2493	756.787742382654	44
2	2494	757.152509153086	43
2	2498	757.629499998457	44
2	2500	757.770495869638	45
2	2501	758.375737388815	44
2	2504	759.851086682464	43
2	2508	760.038653004618	44
2	2510	760.188954107302	45
2	2511	761.55315321778	44
2	2515	762.595057762195	45
2	2517	762.822366861991	46
2	2518	763.497657584781	45
2	2522	764.030082567672	46
2	2524	764.043796842622	47
2	2525	764.857294539185	46
2	2529	765.02524588078	47
2	2530	766.082058811756	46
2	2534	766.653221205767	47
2	2536	767.308671097986	48
2	2537	767.428444431545	47
2	2541	767.683139318876	48
2	2542	769.257440311098	47
2	2546	770.276770074889	48
2	2547	770.625667835967	47
2	2550	772.407313098581	46
2	2554	772.687916397051	47
2	2555	773.756995383286	46
2	2559	774.624259057751	47
2	2560	775.244229028941	46
2	2563	777.012975880326	45
2	2566	778.772278799125	44
2	2570	779.627957756354	45
2	2571	780.308172419862	44
2	2575	780.378222862142	45
2	2577	780.412607459726	46
2	2578	781.751540814535	45
2	2582	781.973362013223	46
2	2584	782.496275241741	47
2	2585	783.090578816653	46
2	2590	784.631059212246	45
2	2594	784.913841377665	46
2	2596	785.433553052864	47
2	2597	786.097525231921	46
2	2601	786.572376983675	47
2	2603	787.198178328924	48
2	2604	787.561756629133	47
2	2608	788.786034310718	48
2	2609	789.285000129425	47
2	2613	790.114845067809	48
2	2615	790.196506509656	49
2	2616	790.488226722934	48
2	2620	790.849077950785	49
2	2622	791.200797568198	50
2	2623	792.297342245848	49
2	2627	792.772450252511	50
2	2628	793.712066029393	49
2	2632	794.480106701885	50
2	2634	795.278936251726	51
2	2635	795.288654539556	50
2	2639	795.818981013307	51
2	2640	797.085772556075	50
2	2644	797.932852662665	51
2	2645	798.603326074601	50
2	2649	799.682736252633	51
2	2651	799.871482867321	52
2	2652	800.567499514864	51
2	2655	802.380985122928	50
2	2661	803.565931366498	51
2	2662	803.747988324249	50
2	2666	803.899643454578	51
2	2667	805.624316127049	50
2	2670	807.307109910445	49
2	2674	807.931783478096	50
2	2675	809.180832108305	49
2	2679	809.461731495302	50
2	2681	810.538161174823	51
2	2682	810.668018106939	50
2	2686	812.554461809108	51
2	2687	812.610690341526	50
2	2691	813.644101160641	51
2	2692	814.495258455546	50
2	2695	815.729568428182	49
2	2699	817.18772120693	50
2	2700	817.221521097057	49
2	2704	817.254143145071	50
2	2706	817.690571292138	51
2	2707	818.519050008066	50
2	2711	818.67076891231	51
2	2713	819.432196149169	52
2	2714	820.149406723313	51
2	2718	820.163474050123	52
2	2719	821.563192052774	51
2	2723	821.585533165614	52
2	2724	823.155394579664	51
2	2727	824.658064914875	50
2	2730	825.885460596912	49
2	2734	827.058622591229	50
2	2735	827.175359415085	49
2	2739	827.719125354638	50
2	2743	828.460652974339	51
2	2744	828.46477632095	50
2	2747	830.37613526211	49
2	2750	831.797920359679	48
2	2754	833.244178950237	49
2	2755	833.726915540182	48
2	2759	834.602633848389	49
2	2760	835.521426137731	48
2	2764	835.969542938591	49
2	2765	837.466117625133	48
2	2768	839.366180612528	47
2	2772	839.865700331586	48
2	2774	839.987859038046	49
2	2776	840.564466804157	50
2	2777	840.939731019185	49
2	2781	841.218411550126	50
2	2783	841.787983117967	51
2	2785	842.199653007165	52
2	2787	842.481843221049	53
2	2788	842.71567981542	52
2	2792	843.001673486378	53
2	2793	844.496043732771	52
2	2796	845.960525106647	51
2	2799	847.218835039818	50
2	2803	847.586177763607	51
2	2805	848.389849186013	52
2	2806	849.088362571792	51
2	2810	850.393095895307	52
2	2811	850.544574647778	51
2	2815	851.755366116824	52
2	2816	851.945063770944	51
2	2819	853.66340595969	50
2	2823	854.264992408721	51
2	2824	855.452770200009	50
2	2828	856.087978665366	51
2	2830	856.295229692439	52
2	2832	856.82848938549	53
2	2833	856.894209548282	52
2	2837	857.567043419301	53
2	2838	858.74744515271	52
2	2842	859.206754478205	53
2	2843	860.506825637641	52
2	2847	861.156055915046	53
2	2848	861.925533372546	52
2	2852	862.571117752614	53
2	2853	863.460675489353	52
2	2857	864.555118158788	53
2	2858	865.043401267203	52
2	2861	867.040879588025	51
2	2865	867.516889174422	52
2	2867	867.782190548869	53
2	2868	868.849703320312	52
2	2872	869.228439840012	53
2	2873	870.139581032852	52
2	2877	871.569720766267	53
2	2878	871.883896840187	52
2	2881	873.582047109502	51
2	2885	873.746562632284	52
2	2887	874.087499459583	53
2	2888	875.232359329435	52
2	2892	875.58573234593	53
2	2893	877.093333398188	52
2	2896	878.336694286028	51
2	2900	878.508298936084	52
2	2901	880.146174971582	51
2	2905	880.313525941781	52
2	2907	880.465749458363	53
2	2908	881.842165902452	52
2	2912	883.084899624441	53
2	2913	883.430307725081	52
2	2917	884.251338303674	53
2	2918	885.011910293447	52
2	2922	885.604246960963	53
2	2924	886.102249750731	54
2	2925	886.499768623533	53
2	2929	887.01601072789	54
2	2931	887.621514631928	55
2	2932	888.096503870199	54
2	2936	889.294898572367	55
2	2937	889.483163322704	54
2	2941	890.240593403347	55
2	2942	891.255437040338	54
2	2945	892.788389725992	53
2	2949	892.988769077564	54
2	2951	893.200529959233	55
2	2952	894.695109469452	54
2	2956	895.350236740833	55
2	2958	896.008539167825	56
2	2959	896.533955647805	55
2	2965	897.767374741518	56
2	2966	897.825800975793	55
2	2969	899.578052564905	54
2	2972	901.466320682884	53
2	2976	901.53313681025	54
2	2977	902.954027688698	53
2	2981	903.050438343301	54
2	2982	904.464769618222	53
2	2985	906.042652395004	52
2	2990	907.511662057237	51
2	2993	909.132958880262	50
2	2997	909.618049788595	51
2	2998	910.661790419379	50
2	3002	911.189213509622	51
2	3005	911.972858067984	50
2	3008	913.517432171675	49
2	3012	915.225496580186	50
2	3013	915.442725979733	49
2	3017	916.378831831067	50
2	3018	917.275220760713	49
2	3022	917.561442321887	50
2	3024	917.960421317527	51
2	3026	918.3247208309	52
2	3027	918.845380462157	51
2	3031	918.945691733055	52
2	3033	919.020313356725	53
2	3034	920.43297901732	52
2	3038	921.758666203804	53
2	3039	921.867359545837	52
2	3043	922.318926842065	53
2	3044	923.138787748488	52
2	3048	924.455054231672	53
2	3050	924.664044012981	54
2	3052	924.849821474372	55
2	3053	924.890559129985	54
2	3056	926.096887577707	53
2	3060	926.674245855282	54
2	3062	927.230385326773	55
2	3063	927.647498709904	54
2	3067	928.214128822405	55
2	3068	928.914180125305	54
2	3071	930.676448909761	53
2	3074	932.347359258318	52
2	3078	932.567240541189	53
2	3079	933.977019467959	52
2	3083	934.729714896561	53
2	3084	935.488687197128	52
2	3087	936.712388362186	51
2	3091	937.132435279506	52
2	3093	938.179541053971	53
2	3094	938.621373604061	52
2	3097	940.148856528113	51
2	3101	940.184373924637	52
2	3103	941.195347928896	53
2	3104	941.444745471152	52
2	3108	942.720638089074	53
2	3109	942.825519811186	52
2	3112	944.421233367558	51
2	3116	944.428003090057	52
2	3118	944.724358665476	53
2	3119	945.981145412113	52
2	3123	946.700337822324	53
2	3124	947.623086509678	52
2	3128	947.831970644026	53
2	3129	948.862162226822	52
2	3132	950.699083721462	51
2	3135	952.153950188319	50
2	3138	953.406582323844	49
2	3141	954.981817831668	48
2	3144	956.412004763829	47
2	3147	957.796142380694	46
2	3151	957.841690325792	47
2	3155	958.40679146793	48
2	3156	959.312633766988	47
2	3160	959.616672092798	48
2	3161	961.098148230286	47
2	3165	961.859701165637	48
2	3167	962.200044304941	49
2	3168	962.333446617247	48
2	3171	963.937620848612	47
2	3175	964.075633062475	48
2	3177	964.362787901129	49
2	3179	965.123170256397	50
2	3180	965.212878044144	49
2	3184	965.259653540514	50
2	3186	965.601430255462	51
2	3187	966.983225886532	50
2	3191	967.697833432205	51
2	3193	968.265346768988	52
2	3195	968.480077508795	53
2	3196	968.884564468645	52
2	3200	970.065113331925	53
2	3201	970.274653688454	52
2	3205	970.967732171691	53
2	3206	971.63359100745	52
2	3210	971.792378096929	53
2	3212	972.061982710138	54
2	3213	973.453776834355	53
2	3217	973.501386543991	54
2	3219	973.81286561367	55
2	3220	975.121781697133	54
2	3224	975.477428450088	55
2	3226	975.495645866796	56
2	3227	976.337646965691	55
2	3231	976.518459458091	56
2	3233	978.055823379017	57
2	3234	978.211696706534	56
2	3238	978.585068783977	57
2	3239	980.001593231977	56
2	3242	981.556832293802	55
2	3245	982.957999975988	54
2	3249	984.09368370756	55
2	3251	984.411666046355	56
2	3252	984.639299535015	55
2	3256	985.124948371117	56
2	3260	985.587780580865	57
2	3262	985.737022641819	58
2	3263	985.984646615954	57
2	3266	987.633912174785	56
2	3270	988.290025865551	57
2	3271	989.29728302584	56
2	3274	990.70210266375	55
2	3278	991.47964500683	56
2	3279	992.653710982027	55
2	3283	993.266731487834	56
2	3284	994.489673467549	55
2	3288	994.541961880841	56
2	3290	995.704591595115	57
2	3291	996.114780092249	56
2	3294	997.869792212742	55
2	3298	998.398668592377	56
2	3299	999.242675222094	55
2	3302	1000.564632585655	54
2	3306	1000.698351043448	55
2	3307	1002.347002812858	54
2	3311	1003.32244647118	55
2	3312	1003.941238612692	54
2	3316	1005.522043120336	55
2	3318	1005.561841934958	56
2	3319	1005.771537973556	55
2	3322	1007.556095144722	54
2	3326	1009.315719697926	55
2	3328	1009.380243729386	56
2	3329	1009.457792815577	55
2	3333	1009.610630465249	56
2	3335	1010.931751681219	57
2	3336	1011.450712623086	56
2	3340	1011.854464999421	57
2	3341	1013.261949967977	56
2	3344	1014.51784171426	55
2	3348	1015.161507004157	56
2	3350	1016.281527068762	57
2	3351	1016.438604787377	56
2	3357	1016.608586361894	57
2	3358	1017.871232127783	56
2	3362	1017.975079557578	57
2	3364	1018.910229555029	58
2	3365	1019.340171356139	57
2	3368	1021.138297530462	56
2	3372	1021.587409673477	57
2	3374	1022.147772267262	58
2	3376	1022.611249090154	59
2	3377	1022.824232810189	58
2	3381	1023.400420256817	59
2	3382	1024.038837986824	58
2	3385	1025.573862552655	57
2	3388	1027.345708066051	56
2	3392	1027.796202300784	57
2	3394	1028.597019304534	58
2	3396	1029.23793732666	59
2	3397	1029.281038911653	58
2	3400	1030.686075011094	57
2	3404	1032.01301295634	58
2	3405	1032.391389420082	57
2	3409	1033.236492366174	58
2	3411	1033.823106663085	59
2	3412	1034.071813941759	58
2	3416	1034.751813057572	59
2	3417	1035.39023602159	58
2	3420	1037.038370252785	57
2	3423	1038.552001504798	56
2	3427	1039.039307235022	57
2	3428	1039.978027976502	56
2	3432	1040.00619979718	57
2	3434	1041.065174221283	58
2	3435	1041.205933116388	57
2	3439	1041.698753250574	58
2	3440	1042.614357003395	57
2	3444	1042.748924387083	58
2	3446	1042.82252398212	59
2	3447	1044.046250670601	58
2	3451	1045.355023796464	59
2	3452	1045.405350817006	58
2	3456	1045.844301334194	59
2	3458	1046.149910542304	60
2	3459	1046.848570981074	59
2	3462	1048.381547703605	58
2	3465	1050.156794518802	57
2	3468	1052.004269316058	56
2	3471	1053.607322366546	55
2	3475	1055.125405875413	56
2	3477	1055.230515642185	57
2	3479	1055.243563750177	58
2	3481	1055.373657992228	59
2	3482	1055.419627753656	58
2	3485	1057.330762131523	57
2	3489	1057.545846237943	58
2	3491	1058.223117124404	59
2	3492	1058.677215621445	58
2	3496	1058.869542984743	59
2	3498	1059.590451151433	60
2	3499	1059.933546884369	59
2	3503	1060.254956962765	60
2	3505	1060.964655773273	61
2	3507	1061.034795149821	62
2	3509	1061.778552958073	63
2	3510	1061.798872069094	62
2	3514	1062.68134136249	63
2	3516	1063.355854241448	64
2	3517	1063.422018887486	63
2	3521	1063.727138361085	64
2	3522	1064.81572985762	63
2	3525	1066.381732612487	62
2	3529	1067.095140648632	63
2	3530	1067.737397796299	62
2	3534	1068.841956087269	63
2	3535	1069.048930230748	62
2	3539	1070.432676554613	63
2	3540	1070.647525893349	62
2	3544	1071.314654450242	63
2	3545	1072.263322455819	62
2	3549	1072.45788171734	63
2	3550	1073.505635809536	62
2	3554	1073.802903732862	63
2	3555	1074.823231525729	62
2	3558	1076.7854224166	61
2	3562	1077.719408648366	62
2	3563	1078.035416117507	61
2	3567	1078.401487127857	62
2	3568	1079.667734047781	61
2	3572	1079.951555409035	62
2	3573	1081.648564444307	61
2	3577	1082.161036929925	62
2	3580	1083.483607785042	61
2	3584	1084.010794212544	62
2	3586	1084.242762444251	63
2	3587	1085.341717048745	62
2	3590	1087.259665691863	61
2	3594	1088.571232477684	62
2	3595	1089.247938435163	61
2	3599	1089.338927337479	62
2	3601	1090.543822815417	63
2	3602	1090.866321938682	62
2	3606	1090.979493324354	63
2	3608	1091.3834631554	64
2	3609	1092.108926592219	63
2	3613	1093.249343133692	64
2	3614	1093.680370205093	63
2	3617	1095.012770394247	62
2	3621	1095.547214094459	63
2	3623	1096.496285912917	64
2	3626	1096.562787006993	63
2	3630	1096.593003882508	64
2	3631	1097.886167460133	63
2	3636	1099.353710594413	62
2	3640	1099.714609281686	63
2	3641	1100.829751645786	62
2	3645	1100.887837377345	63
2	3646	1102.714549205278	62
2	3649	1104.194326587965	61
2	3652	1105.843179478881	60
2	3656	1107.051120779143	61
2	3658	1107.183782179726	62
2	3659	1107.344189128106	61
2	3662	1109.096444782441	60
2	3666	1110.040639981233	61
2	3667	1110.84639306051	60
2	3671	1111.179211416936	61
2	3672	1112.542817126413	60
2	3676	1112.55232315075	61
2	3678	1112.77954816829	62
2	3679	1114.30560779759	61
2	3683	1114.889874259625	62
2	3685	1115.652248593676	63
2	3686	1115.740897295077	62
2	3689	1117.722359636997	61
2	3693	1118.743949556654	62
2	3694	1119.65206873772	61
2	3697	1121.177919354302	60
2	3701	1121.461466743862	61
2	3703	1122.047117278888	62
2	3705	1122.306025767669	63
2	3706	1122.82012895142	62
2	3710	1124.339819434333	63
2	3711	1124.640071013023	62
2	3715	1124.76531155906	63
2	3717	1126.274464978078	64
2	3718	1126.473569106509	63
2	3722	1127.324175337165	64
2	3723	1127.848648076703	63
2	3727	1128.366473951975	64
2	3728	1129.061085775321	63
2	3731	1130.269787508076	62
2	3735	1130.748281939389	63
2	3738	1131.902715978598	62
2	3741	1133.57771687453	61
2	3745	1133.736429236054	62
2	3746	1135.518682513771	61
2	3750	1135.562241545691	62
2	3751	1137.056371367735	61
2	3755	1137.222941716671	62
2	3756	1138.588446979796	61
2	3760	1138.774324041843	62
2	3763	1140.50656523445	61
2	3767	1140.832994218342	62
2	3768	1142.466108812218	61
2	3771	1143.743330704433	60
2	3775	1144.692210155824	61
2	3776	1145.36050602888	60
2	3780	1145.46816536622	61
2	3782	1145.715928608723	62
2	3784	1146.772483014532	63
2	3785	1147.138832711999	62
2	3788	1148.988092526246	61
2	3792	1149.917184367185	62
2	3793	1150.371460361418	61
2	3797	1150.486724198928	62
2	3799	1151.909476247129	63
2	3800	1152.250815082167	62
2	3804	1152.50067716476	63
2	3806	1153.46051674042	64
2	3807	1154.083935043228	63
2	3810	1155.423626537633	62
2	3813	1157.40411081129	61
2	3816	1158.852986386244	60
2	3820	1158.887491815626	61
2	3822	1159.6398173993	62
2	3823	1160.188081476849	61
2	3827	1160.675065785787	62
2	3829	1161.959432882429	63
2	3830	1162.046498529811	62
2	3834	1162.830658155714	63
2	3835	1163.706496630993	62
2	3838	1165.463456894283	61
2	3842	1165.702140548645	62
2	3844	1166.529291902383	63
2	3845	1167.051632077259	62
2	3849	1167.850793871703	63
2	3851	1167.957426987805	64
2	3852	1168.790074106504	63
2	3856	1169.454491385092	64
2	3857	1170.263177585055	63
2	3860	1172.126303310704	62
2	3864	1172.138775781329	63
2	3866	1172.536786892505	64
2	3867	1173.763323698205	63
2	3871	1173.987264503986	64
2	3873	1174.048121140491	65
2	3875	1174.155843224558	66
2	3876	1175.397748182726	65
2	3880	1176.194471180939	66
2	3881	1176.82927800176	65
2	3885	1176.957932314577	66
2	3886	1178.700071950455	65
2	3890	1178.843598697316	66
2	3891	1180.595009536308	65
2	3895	1181.153643042969	66
2	3896	1182.190224744019	65
2	3900	1183.056445047678	66
2	3902	1183.531001759146	67
2	3904	1183.818696921238	68
2	3905	1184.15593619441	67
2	3909	1184.89830553118	68
2	3910	1185.782190572855	67
2	3913	1187.291194121179	66
2	3916	1189.233825799835	65
2	3920	1189.29172357059	66
2	3922	1189.533537404819	67
2	3923	1191.058112165717	66
2	3927	1191.101906892633	67
2	3929	1191.497422466571	68
2	3930	1192.810724346352	67
2	3934	1194.2874045361	68
2	3935	1194.297587683064	67
2	3939	1194.47023413422	68
2	3941	1194.745204154134	69
2	3943	1195.501821256956	70
2	3944	1196.213235449989	69
2	3948	1197.050796017485	70
2	3949	1197.981351318595	69
2	3953	1199.100301387345	70
2	3954	1199.38759021723	69
2	3958	1199.490038597908	70
2	3959	1201.026564495836	69
2	3963	1201.243877742045	70
2	3965	1201.800321500849	71
2	3966	1202.463289433171	70
2	3970	1203.409956618126	71
2	3971	1204.453104643908	70
2	3975	1204.81010917881	71
2	3978	1205.871121723589	70
2	3981	1207.486560627271	69
2	3984	1208.924440009345	68
2	3988	1209.388690932677	69
2	3990	1209.835983069498	70
2	3991	1210.896122391906	69
2	3995	1211.476004091741	70
2	3996	1212.3535075158	69
2	4000	1212.780269330931	70
2	4002	1214.033190486106	71
2	4003	1214.284765399818	70
2	4007	1215.391975181536	71
2	4008	1215.507502723683	70
2	4012	1216.089032322472	71
2	4013	1217.056801838067	70
2	4016	1218.887003369641	69
2	4020	1219.147252129132	70
2	4022	1219.363346306758	71
2	4023	1220.269461207476	70
2	4027	1221.782211262026	71
2	4029	1221.840899298775	72
2	4030	1222.037842633028	71
2	4033	1223.40311669932	70
2	4037	1223.849136830892	71
2	4040	1224.67071577945	70
2	4043	1226.289291922759	69
2	4048	1227.572372163098	68
2	4052	1228.784808494766	69
2	4053	1228.800802901584	68
2	4057	1229.133407054449	69
2	4060	1230.100864557746	68
2	4064	1230.652668822831	69
2	4065	1231.831759176972	68
2	4069	1232.58978411107	69
2	4071	1232.779911726788	70
2	4072	1233.485794968913	69
2	4076	1234.231838775494	70
2	4077	1235.446595485146	69
2	4080	1236.881589539359	68
2	4084	1237.299020913179	69
2	4086	1237.450106126495	70
2	4088	1238.099361052572	71
2	4089	1238.177455047342	70
2	4092	1240.010265940997	69
2	4096	1240.96306883668	70
2	4097	1241.344295488495	69
2	4101	1241.75395105493	70
2	4103	1242.309249957092	71
2	4105	1242.434424843067	72
2	4106	1242.827825299661	71
2	4110	1243.345052774861	72
2	4111	1244.117856412205	71
2	4115	1244.15016492737	72
2	4116	1245.630754720803	71
2	4120	1246.381024878437	72
2	4121	1247.563219896156	71
2	4125	1248.497765572636	72
2	4126	1249.077724857267	71
2	4129	1250.74988834263	70
2	4133	1250.936288012111	71
2	4135	1250.987354219651	72
2	4137	1251.831423158866	73
2	4138	1252.593051831249	72
2	4142	1252.667930987752	73
2	4143	1254.289496813167	72
2	4147	1254.501034188624	73
2	4149	1254.573944966288	74
2	4150	1256.224965593789	73
2	4153	1258.127957621601	72
2	4156	1259.926214098756	71
2	4160	1260.101331422731	72
2	4162	1260.656185894443	73
2	4164	1260.959510525099	74
2	4165	1261.150007747498	73
2	4169	1261.977893194617	74
2	4170	1262.598590117146	73
2	4174	1262.85563243491	74
2	4176	1263.239610440454	75
2	4178	1263.350218141887	76
2	4179	1264.395093890291	75
2	4183	1264.9503954968	76
2	4184	1266.198751551669	75
2	4187	1268.073617862176	74
2	4191	1269.17144297164	75
2	4192	1269.980552370485	74
2	4196	1270.171823235177	75
2	4198	1271.108561652035	76
2	4200	1271.48199502353	77
2	4201	1271.786951813486	76
2	4204	1273.695352014352	75
2	4207	1275.404386199091	74
2	4211	1276.546129160523	75
2	4212	1276.915701312025	74
2	4216	1277.326365243993	75
2	4218	1277.739719152959	76
2	4219	1278.588659625512	75
2	4223	1279.147881410934	76
2	4226	1280.134831045952	75
2	4230	1280.570752849214	76
2	4231	1281.63225785942	75
2	4235	1282.129348331819	76
2	4236	1283.243536044482	75
2	4239	1285.136478020634	74
2	4242	1286.509810747962	73
2	4245	1288.359326743904	72
2	4249	1289.269073135331	73
2	4251	1289.452363824023	74
2	4253	1290.045786392461	75
2	4255	1290.065305538631	76
2	4256	1290.120210005912	75
2	4260	1290.636081807459	76
2	4261	1291.421353279437	75
2	4265	1291.546117034298	76
2	4267	1291.734618229373	77
2	4268	1292.68535442521	76
2	4271	1294.338051416736	75
2	4275	1294.479756381271	76
2	4276	1295.737690528493	75
2	4279	1297.395168627437	74
2	4283	1297.880754406039	75
2	4284	1298.629318614315	74
2	4287	1300.253142337326	73
2	4291	1300.373370523098	74
2	4293	1300.521729653591	75
2	4295	1301.761135493423	76
2	4296	1302.019830290426	75
2	4300	1303.011988553816	76
2	4301	1304.003566670616	75
2	4304	1305.903741323774	74
2	4307	1307.569485216041	73
2	4310	1308.953323231836	72
2	4314	1309.738865093373	73
2	4316	1310.002249862019	74
2	4317	1310.895807597426	73
2	4321	1311.444727648002	74
2	4323	1311.565142773727	75
2	4324	1312.782031931927	74
2	4327	1314.191084074055	73
2	4331	1314.711555009962	74
2	4333	1315.263292344586	75
2	4334	1315.850618518901	74
2	4338	1317.265755303561	75
2	4340	1317.411296632354	76
2	4341	1317.494159354095	75
2	4345	1319.107928295502	76
2	4346	1319.318508453493	75
2	4350	1320.10176238999	76
2	4351	1320.901177179267	75
2	4355	1321.449082914944	76
2	4357	1321.965766897444	77
2	4359	1322.425924435597	78
2	4361	1322.640581634683	79
2	4362	1322.75164642894	78
2	4365	1324.420466977743	77
2	4368	1326.331511913625	76
2	4371	1328.253951499251	75
2	4375	1328.432814311391	76
2	4376	1330.13057420851	75
2	4380	1330.759387917034	76
2	4382	1330.974791453157	77
2	4383	1331.830875006144	76
2	4387	1332.38477940836	77
2	4389	1332.718893779455	78
2	4390	1333.750602015679	77
2	4394	1333.980075823072	78
2	4396	1335.044452823433	79
2	4397	1335.277912440908	78
2	4401	1335.861898715666	79
2	4404	1336.66757073981	78
2	4407	1338.637893770647	77
2	4411	1338.78550860798	78
2	4412	1340.163996639301	77
2	4416	1340.586957691328	78
2	4418	1340.767251417452	79
2	4420	1341.413209604685	80
2	4421	1341.797569651541	79
2	4425	1342.234573917904	80
2	4427	1342.291284479009	81
2	4428	1343.618845174287	80
2	4432	1343.971422546712	81
2	4434	1344.081025358391	82
2	4435	1344.924483805161	81
2	4439	1345.207163844453	82
2	4440	1346.629298557352	81
2	4444	1346.714700139784	82
2	4445	1347.902294077549	81
2	4449	1348.752318096814	82
2	4450	1349.226388712052	81
2	4454	1349.906288082096	82
2	4455	1351.114933463569	81
2	4459	1351.912151678907	82
2	4460	1352.337939378816	81
2	4464	1352.759799934677	82
2	4466	1353.212155039355	83
2	4467	1354.248823148581	82
2	4471	1354.578891700264	83
2	4472	1355.661746778535	82
2	4476	1355.739421074989	83
2	4477	1357.533521306152	82
2	4480	1358.945797220069	81
2	4484	1359.333722333132	82
2	4486	1359.728429675452	83
2	4487	1360.876733430485	82
2	4491	1361.820274235158	83
2	4492	1362.459183396036	82
2	4496	1362.741861909955	83
2	4497	1363.713869757028	82
2	4501	1365.175097716791	83
2	4504	1365.64620634281	82
2	4509	1367.494090919764	81
2	4513	1367.688060791839	82
2	4515	1367.721383457969	83
2	4516	1369.285507965469	82
2	4520	1369.82358383718	83
2	4522	1370.36943370981	84
2	4523	1371.06068335791	83
2	4527	1371.554032351415	84
2	4528	1372.571061065615	83
2	4532	1373.346199320663	84
2	4533	1373.821142171704	83
2	4537	1374.07129241283	84
2	4538	1375.079842680328	83
2	4542	1375.154012640079	84
2	4543	1376.326963209182	83
2	4546	1377.957506127849	82
2	4549	1379.501249127656	81
2	4553	1379.505645716608	82
2	4555	1381.041715379483	83
2	4556	1381.474996439375	82
2	4559	1383.2281162588	81
2	4563	1383.255596345831	82
2	4565	1383.285252335182	83
2	4567	1383.367145099644	84
2	4568	1384.995592085838	83
2	4572	1386.012090462402	84
2	4574	1386.263779800314	85
2	4575	1386.55690137279	84
2	4579	1386.931274302093	85
2	4580	1388.214251244262	84
2	4584	1389.395867748318	85
2	4585	1389.516664845504	84
2	4589	1390.074075931912	85
2	4590	1391.423808294915	84
2	4593	1393.206030612819	83
2	4597	1393.891000456365	84
2	4599	1394.268496491147	85
2	4600	1394.796439508543	84
2	4604	1395.285936264931	85
2	4607	1396.780720799424	84
2	4611	1396.997433077091	85
2	4612	1398.449296790555	84
2	4616	1398.691417836709	85
2	4617	1400.040712010495	84
2	4620	1402.023669214368	83
2	4624	1402.605903372818	84
2	4626	1402.915476797949	85
2	4627	1403.940561736569	84
2	4630	1405.345405343928	83
2	4634	1406.468874232062	84
2	4635	1407.008608625465	83
2	4639	1408.050556829871	84
2	4640	1408.783735411436	83
2	4644	1409.44318953769	84
2	4648	1410.045425269439	85
2	4649	1410.049174674795	84
2	4653	1411.155103616273	85
2	4654	1411.395883069196	84
2	4658	1411.911457255109	85
2	4660	1411.984266111883	86
2	4661	1412.986100176358	85
2	4665	1413.458445973538	86
2	4666	1414.298545146556	85
2	4670	1414.326330152109	86
2	4671	1416.019169672029	85
2	4675	1417.557968335906	86
2	4676	1417.920924552912	85
2	4680	1418.307596756937	86
2	4682	1418.430363909175	87
2	4683	1419.30912953821	86
2	4687	1419.505900269172	87
2	4689	1420.181372990769	88
2	4690	1420.537752875695	87
2	4694	1421.272940071034	88
2	4695	1422.11237453186	87
2	4698	1423.962946605878	86
2	4702	1424.489393385705	87
2	4704	1425.423481483285	88
2	4705	1425.592293771179	87
2	4709	1426.030982704532	88
2	4710	1427.233979754159	87
2	4714	1428.454209105577	88
2	4716	1428.526008905623	89
2	4717	1429.075762988264	88
2	4721	1429.144467332105	89
2	4722	1430.676943205679	88
2	4726	1431.837868689475	89
2	4727	1432.273625425818	88
2	4731	1433.283846424577	89
2	4732	1433.476478174897	88
2	4736	1434.903431690972	89
2	4737	1434.999104816476	88
2	4741	1436.002256070123	89
2	4743	1436.336791586084	90
2	4744	1436.803739003101	89
2	4748	1437.229340044084	90
2	4749	1438.1043148378	89
2	4753	1439.015174632522	90
2	4754	1439.9001347432	89
2	4758	1440.457832819239	90
2	4759	1441.601113171884	89
2	4763	1441.824742500379	90
2	4764	1443.042661876054	89
2	4768	1443.411748597027	90
2	4770	1443.615035985724	91
2	4771	1444.664502843851	90
2	4774	1446.567112487191	89
2	4778	1446.873825003767	90
2	4779	1448.115428315112	89
2	4783	1448.552831456617	90
2	4784	1449.563756121518	89
2	4787	1450.894684038507	88
2	4791	1451.257865976284	89
2	4793	1452.841188211531	90
2	4794	1452.858581240485	89
2	4798	1453.234026961294	90
2	4799	1454.520541293929	89
2	4803	1455.222917858664	90
2	4804	1456.384800861227	89
2	4808	1456.781709276162	90
2	4809	1457.829125205624	89
2	4812	1459.53859839813	88
2	4815	1461.142227465298	87
2	4819	1461.211175316254	88
2	4821	1461.939602046461	89
2	4822	1462.4353013076	88
2	4826	1462.486833869362	89
2	4828	1463.404055589619	90
2	4829	1463.927232825022	89
2	4833	1464.213602219969	90
2	4834	1465.217468922596	89
2	4837	1466.786766776453	88
2	4841	1467.59918528247	89
2	4843	1468.473550989129	90
2	4844	1468.69744728339	89
2	4848	1468.941992985455	90
2	4850	1469.374526328331	91
2	4851	1470.54361425602	90
2	4855	1470.79928382458	91
2	4856	1471.964946020033	90
2	4860	1472.07976654353	91
2	4861	1473.911360941838	90
2	4865	1474.46593720906	91
2	4867	1475.327874716035	92
2	4868	1475.812554110411	91
2	4872	1476.398838309035	92
2	4873	1477.48344900069	91
2	4877	1477.556443410881	92
2	4879	1477.806347765016	93
2	4880	1479.044673510093	92
2	4884	1480.201044908714	93
2	4885	1480.581088534567	92
2	4889	1481.015285362608	93
2	4891	1482.199283749489	94
2	4892	1482.385497761156	93
2	4897	1483.641204741422	92
2	4902	1485.540692728955	91
2	4906	1486.984749456157	92
2	4907	1487.425631862331	91
2	4910	1489.044715078186	90
2	4913	1490.312010817054	89
2	4919	1491.309271323006	90
2	4921	1491.518366885921	91
2	4922	1491.994870587821	90
2	4926	1492.153784238445	91
2	4928	1492.686415606015	92
2	4929	1493.725599007691	91
2	4933	1493.869241176235	92
2	4935	1494.180555993292	93
2	4936	1495.422884069579	92
2	4940	1495.913396637002	93
2	4942	1496.28758771657	94
2	4944	1496.532677086223	95
2	4947	1497.278856395008	94
2	4952	1498.846895415345	93
2	4956	1499.30065580753	94
2	4958	1499.521775461211	95
2	4959	1500.276129594268	94
2	4963	1500.490967078258	95
2	4964	1502.255623193653	94
2	4967	1503.660317464741	93
2	4970	1505.453011850836	92
2	4974	1505.622201126001	93
2	4975	1506.769471942643	92
2	4979	1507.004011190672	93
2	4980	1508.414842975335	92
2	4984	1509.346724300582	93
2	4985	1509.740011905515	92
2	4989	1510.559765434362	93
2	4993	1511.073860868507	94
2	4994	1511.375581383155	93
2	4998	1512.592228789954	94
2	4999	1512.906811158926	93
2	5003	1513.818048608416	94
2	5005	1514.145029447694	95
2	5006	1514.210657901325	94
2	5010	1514.278561547417	95
2	5012	1515.70163581087	96
2	5013	1515.864264495865	95
2	5017	1516.153668073399	96
2	5019	1516.771950466865	97
2	5020	1517.773305421517	96
2	5024	1517.88272445078	97
2	5026	1519.177726299814	98
2	5027	1519.234574997433	97
2	5030	1520.661070524537	96
2	5033	1522.095891642765	95
2	5037	1523.049772005489	96
2	5038	1523.478640362256	95
2	5041	1524.816599458837	94
2	5045	1525.059577893541	95
2	5046	1526.709697341927	94
2	5050	1526.753740327133	95
2	5051	1528.508215158813	94
2	5055	1529.009750474959	95
2	5057	1529.277998112557	96
2	5058	1529.983619111039	95
2	5061	1531.235876515702	94
2	5065	1531.504537119581	95
2	5066	1532.733326563433	94
2	5070	1532.835715392091	95
2	5072	1533.532771903086	96
2	5074	1533.924738811105	97
2	5075	1534.587194799639	96
2	5078	1535.920705895692	95
2	5082	1536.20604985235	96
2	5084	1537.155643292478	97
2	5085	1537.403080506258	96
2	5088	1539.311562305883	95
2	5092	1540.473553820016	96
2	5093	1540.618478965022	95
2	5097	1541.515188370378	96
2	5098	1542.38186321725	95
2	5102	1543.258243827635	96
2	5103	1543.802758796335	95
2	5106	1545.627021617823	94
2	5110	1546.970309409206	95
2	5111	1547.624122097724	94
2	5115	1548.04334206578	95
2	5116	1549.305898423874	94
2	5120	1549.600497605188	95
2	5122	1550.938318940826	96
2	5123	1551.132557128192	95
2	5129	1552.032471493569	96
2	5130	1552.334444222421	95
2	5134	1552.377494424185	96
2	5135	1554.187901173913	95
2	5139	1554.907469899665	96
2	5140	1555.899596285083	95
2	5144	1556.111566769205	96
2	5145	1557.604930252217	95
2	5149	1557.830987013657	96
2	5150	1559.594147289738	95
2	5153	1560.851717172943	94
2	5157	1561.407217323181	95
2	5159	1561.86565581261	96
2	5160	1562.457370468423	95
2	5164	1564.016536925755	96
2	5165	1564.175940496855	95
2	5169	1564.631546142977	96
2	5171	1565.082275261691	97
2	5172	1565.527022554733	96
2	5176	1565.780971195483	97
2	5177	1567.291732826837	96
2	5181	1568.621163849669	97
2	5182	1568.78747729008	96
2	5186	1569.609610540841	97
2	5187	1570.229092473918	96
2	5190	1571.587809415543	95
2	5193	1573.000127997444	94
2	5197	1574.01170311943	95
2	5198	1574.40862992146	94
2	5202	1574.606960821818	95
2	5203	1575.96724148673	94
2	5207	1576.027937697226	95
2	5208	1577.890996523211	94
2	5214	1578.840760670381	95
2	5215	1579.737976264591	94
2	5218	1581.207082843045	93
2	5222	1581.89381914895	94
2	5223	1583.029087898145	93
2	5227	1583.295952280346	94
2	5229	1583.329284595484	95
2	5232	1584.524153060662	94
2	5236	1585.551145431289	95
2	5237	1585.808685147213	94
2	5241	1587.098982940249	95
2	5242	1587.379431130933	94
2	5246	1587.44935154554	95
2	5248	1588.616758022043	96
2	5249	1588.983263261067	95
2	5253	1589.025734805055	96
2	5254	1590.70329400749	95
2	5258	1590.710953651337	96
2	5259	1592.472822590182	95
2	5263	1593.500689910049	96
2	5264	1594.064387468072	95
2	5267	1595.39470326175	94
2	5271	1595.451819601363	95
2	5273	1595.976012512556	96
2	5274	1596.637368611256	95
2	5278	1598.148036141961	96
2	5279	1598.313146801489	95
2	5283	1599.659783763896	96
2	5284	1599.666493150043	95
2	5288	1599.90454515041	96
2	5289	1601.060010958473	95
2	5294	1603.000687279003	94
2	5297	1604.285530889975	93
2	5301	1604.871704661405	94
2	5303	1605.302639014055	95
2	5304	1605.664527303176	94
2	5307	1607.222037622901	93
2	5311	1608.367089209932	94
2	5312	1609.149573913599	93
2	5315	1610.411731762263	92
2	5319	1611.132164719265	93
2	5320	1612.228714106615	92
2	5324	1612.576580834588	93
2	5325	1613.533467891823	92
2	5329	1613.587502019341	93
2	5332	1615.167870311077	92
2	5336	1616.200067988046	93
2	5337	1616.699147653031	92
2	5340	1618.46485898533	91
2	5343	1619.762261518846	90
2	5347	1620.921994092579	91
2	5349	1621.276459817652	92
2	5350	1621.322055526274	91
2	5354	1621.857200514758	92
2	5355	1622.735334056067	91
2	5359	1623.283101870079	92
2	5360	1624.073591020341	91
2	5364	1625.622399660327	92
2	5365	1626.050205442878	91
2	5369	1626.779617988161	92
2	5370	1627.492708604793	91
2	5373	1629.108628616306	90
2	5376	1630.586309783543	89
2	5380	1631.014737229587	90
2	5382	1631.475941741759	91
2	5384	1631.924333793089	92
2	5385	1632.549794645431	91
2	5389	1632.675667857583	92
2	5390	1634.057988464097	91
2	5394	1634.500268642832	92
2	5396	1634.655188897419	93
2	5397	1635.978006402785	92
2	5401	1637.202387335367	93
2	5402	1637.493855608078	92
2	5406	1638.230877779058	93
2	5407	1638.814479041854	92
2	5411	1639.363670670977	93
2	5412	1640.274888201626	92
2	5416	1640.797125197274	93
2	5417	1641.584118915359	92
2	5420	1643.144453753168	91
2	5424	1643.427811057839	92
2	5426	1643.57684112261	93
2	5428	1644.664540786231	94
2	5429	1644.85070679822	93
2	5433	1646.236221081552	94
2	5434	1646.614111793423	93
2	5438	1646.663013368409	94
2	5439	1648.612859199392	93
2	5443	1650.224352857386	94
2	5444	1650.43924780936	93
2	5448	1651.101264419913	94
2	5449	1651.930260511683	93
2	5453	1652.805430476615	94
2	5454	1653.693647659765	93
2	5458	1654.711886626454	94
2	5459	1655.083527526454	93
2	5463	1656.245726096929	94
2	5464	1657.03078704235	93
2	5468	1657.630886963733	94
2	5469	1658.774898737677	93
2	5473	1659.080179391412	94
2	5474	1660.096215226695	93
2	5477	1661.305470028341	92
2	5481	1662.174354212417	93
2	5482	1663.271720938951	92
2	5486	1663.954775078526	93
2	5488	1664.033607938938	94
2	5489	1664.951766532295	93
2	5492	1666.450032926918	92
2	5496	1666.878363517188	93
2	5497	1667.722272570812	92
2	5501	1668.268444802729	93
2	5502	1669.344687489242	92
2	5505	1671.052694909841	91
2	5509	1671.7281658674	92
2	5511	1671.800051531664	93
2	5513	1672.520377179155	94
2	5514	1672.59605327119	93
2	5518	1673.566439045584	94
2	5519	1674.194944578045	93
2	5523	1674.49754092805	94
2	5525	1675.670368190687	95
2	5526	1675.89675253556	94
2	5530	1676.943960971176	95
2	5531	1677.712490718075	94
2	5535	1678.987096041033	95
2	5536	1679.244065186948	94
2	5540	1680.3990154803	95
2	5541	1681.032452010371	94
2	5546	1682.326895891883	93
2	5550	1683.388029134873	94
2	5551	1683.581562278241	93
2	5554	1685.072032544211	92
2	5557	1686.841374437705	91
2	5561	1687.793253852246	92
2	5563	1687.822353321522	93
2	5564	1688.428497278326	92
2	5567	1689.988207101085	91
2	5570	1691.56689537932	90
2	5573	1692.862171690732	89
2	5577	1693.101679202553	90
2	5579	1693.15014387747	91
2	5580	1694.417906740129	90
2	5584	1694.947619736964	91
2	5586	1695.706320066198	92
2	5588	1696.123833125257	93
2	5589	1696.414930588387	92
2	5593	1696.436369638192	93
2	5595	1697.171359434164	94
2	5596	1697.846926029593	93
2	5600	1698.439537048726	94
2	5602	1698.720686735243	95
2	5604	1698.924679136107	96
2	5605	1699.605337428496	95
2	5609	1700.198141245217	96
2	5611	1700.489785553008	97
2	5612	1701.369135813982	96
2	5616	1701.94616870257	97
2	5617	1703.264391950712	96
2	5620	1704.689476211377	95
2	5624	1704.749366665933	96
2	5626	1705.576655494794	97
2	5627	1706.371874126986	96
2	5630	1707.618274902933	95
2	5634	1708.818022033026	96
2	5636	1708.975073317926	97
2	5637	1709.456911792614	96
2	5640	1711.005238169626	95
2	5644	1711.768432739249	96
2	5645	1712.332180364252	95
2	5648	1713.761946019352	94
2	5652	1713.974000978368	95
2	5653	1715.537268582739	94
2	5657	1716.581464579389	95
2	5659	1717.452392398508	96
2	5660	1717.46037390475	95
2	5663	1719.291590168149	94
2	5667	1720.64945388401	95
2	5669	1720.692450780717	96
2	5671	1720.707103673171	97
2	5672	1720.945494635784	96
2	5676	1721.196460967923	97
2	5678	1721.878766292632	98
2	5680	1722.165420741348	99
2	5681	1722.508663879157	98
2	5685	1723.731226841422	99
2	5686	1723.766422141352	98
2	5689	1725.52447886263	97
2	5693	1726.124414002534	98
2	5695	1726.641458866939	99
2	5696	1727.385002021687	98
2	5699	1728.690944066467	97
2	5703	1728.924184840951	98
2	5705	1729.682436814242	99
2	5707	1730.018699219522	100
2	5709	1730.193662131789	101
2	5710	1730.479295801753	100
2	5713	1731.682223905632	99
2	5717	1732.10855832882	100
2	5719	1732.763631351657	101
2	5720	1733.487920890758	100
2	5724	1733.634416653365	101
2	5725	1734.950714976909	100
2	5729	1735.127238342806	101
2	5730	1736.87034588215	100
2	5733	1738.475312699015	99
2	5736	1740.421780927489	98
2	5740	1740.556433517551	99
2	5741	1741.76950677597	98
2	5745	1743.164237772495	99
2	5746	1743.223874332393	98
2	5749	1744.667294383245	97
2	5753	1745.894997208398	98
2	5755	1745.994213057114	99
2	5756	1746.270551174516	98
2	5760	1747.467618862109	99
2	5761	1747.916846862072	98
2	5764	1749.468214623639	97
2	5768	1749.640271950074	98
2	5770	1750.628952952238	99
2	5771	1750.697947048032	98
2	5775	1751.511064024699	99
2	5777	1751.544888498618	100
2	5779	1752.429007684703	101
2	5781	1752.558941298261	102
2	5782	1752.578523495988	101
2	5785	1753.873053873525	100
2	5789	1754.878112894276	101
2	5790	1755.192805320405	100
2	5793	1756.506028289356	99
2	5796	1757.986274234027	98
2	5800	1758.006431454025	99
2	5802	1758.793388080366	100
2	5805	1759.93919281327	99
2	5809	1759.995817986862	100
2	5811	1760.147300669102	101
2	5813	1760.766147841873	102
2	5814	1761.832400181525	101
2	5817	1763.788376306005	100
2	5821	1764.214392889752	101
2	5823	1764.482744593613	102
2	5824	1765.186537487813	101
2	5828	1765.291434506979	102
2	5829	1767.079438950316	101
2	5833	1767.308784693682	102
2	5834	1768.548988370047	101
2	5838	1769.000617512244	102
2	5839	1770.353037612894	101
2	5843	1771.439438075379	102
2	5844	1771.686426014089	101
2	5848	1772.3839626334	102
2	5849	1772.899772339136	101
2	5852	1774.685147605099	100
2	5856	1774.929547237203	101
2	5858	1775.829680103716	102
2	5859	1775.924668126188	101
2	5862	1777.328836699024	100
2	5866	1777.785234586036	101
2	5867	1779.229372389995	100
2	5871	1779.647180664624	101
2	5873	1779.748399611778	102
2	5875	1780.322600704085	103
2	5876	1780.443148289256	102
2	5880	1780.86604941101	103
2	5881	1781.911851191528	102
2	5885	1782.319023293892	103
2	5887	1782.679470248308	104
2	5888	1783.532769709274	103
2	5891	1785.130492088951	102
2	5895	1786.415180071313	103
2	5896	1786.919896137163	102
2	5899	1788.13098693677	101
2	5902	1789.831039665088	100
2	5906	1790.600383265936	101
2	5907	1791.1470715385	100
2	5911	1791.451571534079	101
2	5913	1791.746373268344	102
2	5914	1793.10050832425	101
2	5918	1793.790683573549	102
2	5919	1794.763801537275	101
2	5923	1795.150055744899	102
2	5924	1796.248092316843	101
2	5928	1796.306941000663	102
2	5930	1796.723341844115	103
2	5931	1797.782087158791	102
2	5935	1798.626427357208	103
2	5936	1799.296424560814	102
2	5939	1801.119917520328	101
2	5943	1801.248736809023	102
2	5945	1801.800811215842	103
2	5946	1802.603298953927	102
2	5950	1802.849905984335	103
2	5952	1804.016347761354	104
2	5953	1804.43895622418	103
2	5957	1804.99819406654	104
2	5958	1806.24390428514	103
2	5962	1807.625690983112	104
2	5964	1807.751348500131	105
2	5965	1808.099100425474	104
2	5968	1809.458898273676	103
2	5972	1810.99960709874	104
2	5973	1811.456402997307	103
2	5976	1813.401025961533	102
2	5980	1813.710921107814	103
2	5982	1814.033498646497	104
2	5984	1814.300878316739	105
2	5985	1814.958677759215	104
2	5989	1816.758027965198	105
2	5990	1816.816831772968	104
2	5993	1818.243043615863	103
2	5998	1819.976231160581	102
2	6002	1820.638536419782	103
2	6004	1821.236709645033	104
2	6005	1821.256530390687	103
2	6009	1822.830298591036	104
2	6010	1823.035440268002	103
2	6014	1824.469910472007	104
2	6016	1824.81626387588	105
2	6017	1824.872033942498	104
2	6021	1825.127158739229	105
2	6023	1826.312124796091	106
2	6025	1826.408604444107	107
2	6026	1826.540185950331	106
2	6030	1827.62198565719	107
2	6031	1828.492092405639	106
2	6036	1830.301221285208	105
2	6040	1831.429499862592	106
2	6044	1831.762485779247	107
2	6046	1832.069878118118	108
2	6047	1832.24169227705	107
2	6051	1833.80754282911	108
2	6052	1834.228129823512	107
2	6055	1835.560559465929	106
2	6058	1836.845691132366	105
2	6061	1838.161834047183	104
2	6064	1839.764995707579	103
2	6068	1840.980682309314	104
2	6069	1841.436738973677	103
2	6073	1841.783532432488	104
2	6075	1842.933136354934	105
2	6076	1843.102800117813	104
2	6079	1845.010128264137	103
2	6083	1846.066534232699	104
2	6084	1846.769635442466	103
2	6088	1847.447672647874	104
2	6089	1848.660169138767	103
2	6093	1849.615909865387	104
2	6095	1849.952923329383	105
2	6096	1849.953905562505	104
2	6099	1851.209642682604	103
2	6102	1852.882092793665	102
2	6106	1854.280706933254	103
2	6107	1854.281554711617	102
2	6111	1854.845603685501	103
2	6113	1855.851301753941	104
2	6114	1855.930498000428	103
2	6118	1856.347389992045	104
2	6120	1857.120995161357	105
2	6121	1857.481308193512	104
2	6125	1857.537476166355	105
2	6127	1858.895144825083	106
2	6128	1859.311451629556	105
2	6132	1859.638570045589	106
2	6133	1860.809151997983	105
2	6137	1861.126340327354	106
2	6138	1862.350855181746	105
2	6142	1863.252227400844	106
2	6143	1863.967776576809	105
2	6146	1865.479571373954	104
2	6150	1865.843274298369	105
2	6151	1867.011669778458	104
2	6154	1868.317618831999	103
2	6158	1869.355829235568	104
2	6159	1869.672135004967	103
2	6163	1870.884616507932	104
2	6164	1871.610756791017	103
2	6168	1871.769817798429	104
2	6169	1873.069903167157	103
2	6173	1873.089179127633	104
2	6175	1874.295832333806	105
2	6176	1875.021469499363	104
2	6180	1875.041237456949	105
2	6181	1876.568963173038	104
2	6185	1876.770839271137	105
2	6187	1877.093394849673	106
2	6188	1878.49094897472	105
2	6192	1879.456271374094	106
2	6193	1879.810538694083	105
2	6197	1879.996964685813	106
2	6199	1880.051203791663	107
2	6201	1880.172471739329	108
2	6203	1881.711181376899	109
2	6204	1881.806210616051	108
2	6208	1882.051255631372	109
2	6210	1882.266968270738	110
2	6212	1882.273983264021	111
2	6214	1883.357551308735	112
2	6215	1883.468349732279	111
2	6219	1884.887583465369	112
2	6220	1885.271317321628	111
2	6224	1886.419045719204	112
2	6225	1886.702073688998	111
2	6228	1888.433174966282	110
2	6231	1890.38195756246	109
2	6234	1891.58703943473	108
2	6237	1893.341137490801	107
2	6241	1893.92689413092	108
2	6243	1894.101544691	109
2	6244	1895.020448959439	108
2	6247	1896.582030623971	107
2	6251	1897.581706181821	108
2	6253	1898.058092708529	109
2	6254	1898.42117079795	108
2	6258	1899.074074085227	109
2	6259	1899.699480587436	108
2	6263	1900.770906936474	109
2	6264	1901.363770721858	108
2	6268	1902.40634583799	109
2	6270	1902.422401832582	110
2	6272	1902.693796201923	111
2	6273	1903.316921578167	110
2	6276	1904.687341425387	109
2	6280	1905.322476319474	110
2	6282	1905.813332136009	111
2	6283	1906.262166014878	110
2	6287	1906.84842010505	111
2	6288	1907.614289234584	110
2	6292	1907.647881319619	111
2	6293	1909.080689115269	110
2	6297	1909.501116297983	111
2	6299	1910.07857823917	112
2	6300	1910.857404517574	111
2	6303	1912.172670705808	110
2	6307	1912.293102959546	111
2	6309	1912.388025166822	112
2	6311	1912.590319667735	113
2	6312	1913.469908980099	112
2	6315	1915.088403971312	111
2	6319	1915.203864009135	112
2	6320	1916.604413720225	111
2	6324	1916.989635603357	112
2	6326	1917.021071205169	113
2	6327	1918.423197294963	112
2	6331	1918.650939792335	113
2	6332	1920.094460535427	112
2	6336	1921.17530952768	113
2	6337	1921.296014750009	112
2	6341	1921.526024369395	113
2	6342	1923.222206078475	112
2	6345	1924.630364164156	111
2	6349	1925.487486302256	112
2	6350	1926.088073845399	111
2	6354	1926.302084292321	112
2	6356	1927.025937582053	113
2	6357	1928.024111004179	112
2	6360	1929.350966893142	111
2	6364	1930.033050512966	112
2	6365	1930.887668518914	111
2	6369	1931.168238907014	112
2	6371	1931.171277025444	113
2	6372	1932.302977210848	112
2	6376	1932.648326021028	113
2	6378	1932.90471649552	114
2	6379	1933.710871955386	113
2	6382	1935.336944556056	112
2	6385	1936.893729743181	111
2	6388	1938.159232796548	110
2	6391	1939.459547802439	109
2	6395	1940.043091892847	110
2	6397	1940.082436976851	111
2	6398	1941.0297092747	110
2	6402	1941.11733252054	111
2	6404	1941.359443786117	112
2	6405	1942.894272066286	111
2	6408	1944.559504448442	110
2	6412	1945.67681211595	111
2	6413	1945.956910715817	110
2	6417	1946.314529665885	111
2	6419	1946.720341110687	112
2	6420	1947.828046102083	111
2	6424	1949.057258625531	112
2	6426	1949.369263074759	113
2	6427	1949.377498971491	112
2	6430	1950.748053562648	111
2	6434	1950.858782780229	112
2	6435	1952.079457184307	111
2	6439	1952.149584816268	112
2	6441	1952.793897642039	113
2	6443	1953.322419472595	114
2	6445	1953.582945969592	115
2	6446	1953.641486672692	114
2	6449	1954.85685492941	113
2	6455	1955.538377845618	114
2	6457	1956.448499541297	115
2	6458	1956.846727496579	114
2	6462	1957.903983141216	115
2	6463	1958.699497378625	114
2	6467	1958.883856655787	115
2	6469	1960.220355207936	116
2	6470	1960.240563395068	115
2	6473	1961.725622595295	114
2	6477	1963.409298365388	115
2	6478	1963.668592125557	114
2	6482	1964.354590121099	115
2	6483	1964.877109713114	114
2	6487	1965.098536536337	115
2	6490	1966.150950890786	114
2	6494	1966.439439305534	115
2	6496	1966.538457069361	116
2	6498	1967.253740961751	117
2	6499	1967.486126512668	116
2	6502	1969.474807735353	115
2	6505	1970.722743510648	114
2	6509	1971.358982658978	115
2	6510	1972.122463228002	114
2	6513	1973.516285318516	113
2	6516	1975.513291806362	112
2	6520	1976.513432555887	113
2	6522	1976.546072111459	114
2	6523	1977.480724526204	113
2	6526	1978.855646317273	112
2	6530	1980.447384179621	113
2	6531	1980.752789290815	112
2	6535	1981.960600893624	113
2	6537	1982.719084946033	114
2	6538	1982.733497710533	113
2	6542	1982.87117281749	114
2	6544	1983.144536365889	115
2	6546	1983.899231628886	116
2	6547	1984.527638165287	115
2	6551	1984.55793251381	116
2	6552	1986.392248532369	115
2	6556	1987.406437406802	116
2	6558	1987.667546356773	117
2	6559	1987.753760972812	116
2	6562	1989.043062534376	115
2	6566	1990.034857392473	116
2	6567	1990.922102331004	115
2	6571	1991.681552112975	116
2	6573	1992.631420498701	117
2	6574	1992.649813220098	116
2	6578	1994.148668513565	117
2	6579	1994.281430778473	116
2	6583	1995.020120794493	117
2	6584	1995.974326469942	116
2	6587	1997.488420964039	115
2	6591	1998.101511979138	116
2	6593	1998.28703968615	117
2	6594	1999.390140867426	116
2	6598	1999.484709512381	117
2	6599	2001.348311108543	116
2	6603	2001.470166857889	117
2	6605	2001.981798270211	118
2	6608	2003.111081684946	117
2	6611	2004.933075841336	116
2	6615	2005.214028849149	117
2	6617	2005.341320404363	118
2	6618	2006.272376514977	117
2	6621	2007.616178661591	116
2	6625	2008.83653494415	117
2	6626	2008.909203361726	116
2	6629	2010.126928751549	115
2	6634	2011.522337449534	114
2	6638	2013.330430453762	115
2	6639	2013.462219086481	114
2	6642	2015.456833086354	113
2	6646	2015.728165289662	114
2	6648	2016.200786590272	115
2	6649	2017.03805422206	114
2	6653	2017.366939786539	115
2	6655	2017.731697240203	116
2	6656	2018.41785411649	115
2	6659	2019.796953295177	114
2	6663	2020.000283776447	115
2	6664	2021.379978909908	114
2	6668	2021.526724471195	115
2	6670	2021.829627150081	116
2	6672	2022.962556385775	117
2	6673	2023.142995123571	116
2	6677	2023.298876134216	117
2	6679	2023.874969354715	118
2	6681	2024.568425944149	119
2	6682	2024.748758168152	118
2	6685	2026.514807448915	117
2	6689	2027.481341924948	118
2	6690	2028.172360346473	117
2	6694	2029.008468303323	118
2	6695	2029.984548684589	117
2	6698	2031.422845314077	116
2	6701	2032.6412096778	115
2	6704	2034.013043707616	114
2	6708	2035.289435775347	115
2	6709	2035.539464381903	114
2	6713	2037.486834677627	115
2	6714	2037.524471654936	114
2	6718	2038.211557697566	115
2	6719	2039.107114892273	114
2	6723	2039.727445352497	115
2	6725	2040.053273522207	116
2	6727	2040.085511056551	117
2	6728	2040.57093791031	116
2	6732	2040.836961058038	117
2	6734	2041.38020069837	118
2	6735	2042.089125863283	117
2	6739	2043.961375500025	118
2	6741	2043.962742386802	119
2	6742	2043.981951131865	118
2	6746	2045.44152044412	119
2	6747	2045.444083585783	118
2	6751	2046.03386272505	119
2	6752	2046.831297822489	118
2	6756	2047.124405320242	119
2	6757	2048.503067393048	118
2	6760	2050.296359455033	117
2	6764	2050.744168321549	118
2	6766	2051.846962923704	119
2	6767	2052.077866807586	118
2	6771	2053.384114969242	119
2	6772	2053.948374123319	118
2	6776	2054.2366278327	119
2	6778	2054.890511988136	120
2	6779	2055.812177821628	119
2	6783	2056.025449177535	120
2	6784	2057.468285141519	119
2	6787	2058.752347559861	118
2	6791	2059.80690867371	119
2	6792	2060.556655558578	118
2	6796	2061.626972799494	119
2	6797	2061.987907993241	118
2	6801	2063.122560894586	119
2	6802	2063.816686585924	118
2	6806	2065.060879558679	119
2	6807	2065.27467998807	118
2	6811	2065.304685120214	119
2	6812	2066.648235045007	118
2	6816	2066.964218199629	119
2	6818	2067.531768348826	120
2	6820	2067.556656580915	121
2	6821	2068.390405966534	120
2	6824	2069.632387906692	119
2	6828	2069.728476694787	120
2	6830	2070.482560178216	121
2	6831	2071.091821497685	120
2	6835	2071.141730957617	121
2	6836	2072.422241239442	120
2	6840	2073.64361617645	121
2	6841	2073.968810655555	120
2	6845	2074.753201576592	121
2	6846	2075.897029770172	120
2	6849	2077.446444585926	119
2	6853	2077.694474495741	120
2	6854	2078.82170534712	119
2	6858	2080.388025984332	120
2	6860	2080.759868457745	121
2	6861	2080.792327238253	120
2	6864	2082.276888247213	119
2	6867	2083.601295337646	118
2	6871	2083.75866776469	119
2	6873	2084.050648448916	120
2	6875	2084.991423639718	121
2	6876	2085.021130699298	120
2	6880	2086.118803172242	121
2	6881	2086.497901487915	120
2	6885	2087.133495829951	121
2	6886	2088.045951045683	120
2	6890	2088.602718495357	121
2	6892	2088.628212537513	122
2	6893	2089.698905102356	121
2	6897	2090.777270199107	122
2	6898	2091.103779015324	121
2	6902	2092.672751961031	122
2	6903	2092.85091363453	121
2	6907	2092.92360178086	122
2	6909	2093.471880304904	123
2	6912	2094.391417226202	122
2	6915	2095.870679369203	121
2	6921	2096.578643544029	122
2	6923	2096.819268211925	123
2	6924	2097.786419930316	122
2	6928	2098.093457847548	123
2	6929	2099.737981918647	122
2	6933	2099.972114192151	123
2	6936	2101.111943729042	122
2	6940	2101.936597543955	123
2	6941	2103.041502312577	122
2	6945	2103.518080166031	123
2	6946	2104.340546001873	122
2	6950	2104.447899400097	123
2	6951	2106.093651404052	122
2	6954	2107.492516489333	121
2	6957	2108.852001007652	120
2	6960	2110.762469575001	119
2	6964	2111.677002453996	120
2	6966	2111.852210612553	121
2	6967	2112.613547050586	120
2	6970	2114.225495143799	119
2	6974	2114.491564700286	120
2	6975	2115.812587903632	119
2	6979	2115.967191178597	120
2	6980	2117.077815315133	119
2	6984	2118.31652353952	120
2	6986	2118.412984902029	121
2	6988	2118.724160301466	122
2	6989	2118.959549456282	121
2	6992	2120.181684898777	120
2	6996	2121.2155652557	121
2	6998	2121.48889031141	122
2	6999	2121.768096146738	121
2	7003	2123.142769228858	122
2	7004	2123.266326827375	121
2	7008	2124.333124971914	122
2	7009	2124.528260781994	121
2	7013	2124.882535341814	122
2	7015	2125.528194420035	123
2	7017	2125.736889646846	124
2	7018	2125.899084129935	123
2	7021	2127.416540547652	122
2	7024	2129.391920709615	121
2	7028	2130.373391908321	122
2	7029	2130.701447897596	121
2	7035	2132.356867830349	122
2	7036	2132.691368226712	121
2	7042	2133.144777234263	122
2	7043	2134.089555221056	121
2	7047	2134.871235062443	122
2	7048	2135.450716935476	121
2	7051	2137.300661859108	120
2	7054	2139.113398374064	119
2	7058	2139.708682398342	120
2	7059	2140.892812654382	119
2	7063	2141.200684468925	120
2	7065	2141.54075871758	121
2	7067	2141.795018748671	122
2	7068	2142.739216396777	121
2	7072	2143.009094611032	122
2	7073	2144.148031291558	121
2	7076	2145.934385869286	120
2	7080	2146.108739186733	121
2	7082	2146.292286623384	122
2	7083	2147.379130745313	121
2	7087	2147.5115970037	122
2	7089	2148.37737652969	123
2	7090	2149.318256008631	122
2	7094	2150.16801122523	123
2	7096	2150.204820241187	124
2	7097	2150.662095043255	123
2	7101	2151.889559972618	124
2	7102	2152.039500032557	123
2	7105	2153.904728367558	122
2	7109	2154.546593223497	123
2	7110	2155.323502089462	122
2	7114	2155.446301285167	123
2	7115	2156.636568368046	122
2	7119	2156.759606709769	123
2	7120	2158.57839225494	122
2	7123	2160.534777467704	121
2	7127	2161.134265541273	122
2	7128	2162.099628970219	121
2	7132	2162.352680047911	122
2	7133	2163.610648040665	121
2	7137	2164.671181588503	122
2	7138	2165.596229418931	121
2	7142	2165.982076443605	122
2	7143	2166.906570462329	121
2	7147	2167.973984642904	122
2	7149	2168.005431944189	123
2	7151	2168.198415228289	124
2	7152	2168.298577237321	123
2	7156	2169.279725631392	124
2	7157	2169.7115403859	123
2	7161	2169.859843108547	124
2	7162	2170.959477903699	123
2	7166	2171.933827266191	124
2	7167	2172.484647227456	123
2	7171	2173.288959511302	124
2	7172	2173.94869778492	123
2	7176	2175.047995117085	124
2	7177	2175.721101269875	123
2	7181	2176.438306596034	124
2	7182	2177.627552941446	123
2	7185	2179.556899623205	122
2	7189	2181.119124774487	123
2	7190	2181.383045380381	122
2	7194	2182.468509273071	123
2	7195	2182.932681609136	122
2	7199	2183.290721946317	123
2	7201	2183.492201139861	124
2	7203	2183.787403408367	125
2	7205	2184.312147848445	126
2	7206	2184.897638829802	125
2	7210	2184.916355906391	126
2	7211	2186.807007540581	125
2	7215	2187.321983858766	126
2	7216	2188.494836510164	125
2	7219	2189.84814835154	124
2	7222	2191.269213610147	123
2	7226	2191.287086544669	124
2	7227	2192.932368206051	123
2	7231	2194.10668485496	124
2	7232	2194.161583733191	123
2	7236	2194.668034113555	124
2	7238	2195.210577006368	125
2	7239	2195.728275037003	124
2	7243	2196.332226336258	125
2	7244	2197.238780461815	124
2	7248	2197.384997316343	125
2	7250	2197.67081285463	126
2	7252	2198.644446917535	127
2	7253	2199.14493228123	126
2	7257	2199.738480845037	127
2	7258	2200.776874973256	126
2	7262	2201.242403745126	127
2	7264	2201.558664432979	128
2	7265	2202.066417280774	127
2	7269	2203.260553775955	128
2	7271	2203.657541187254	129
2	7272	2203.968419874835	128
2	7276	2204.485611900518	129
2	7278	2204.789872876081	130
2	7279	2205.626771421547	129
2	7283	2207.174668708596	130
2	7284	2207.521160048994	129
2	7288	2207.723836522159	130
2	7290	2207.744799039168	131
2	7291	2209.412259750816	130
2	7295	2209.67335193613	131
[...]
5	76156	22876.573750923974	10835.751152296
5	76168	22879.876638107588	2307.9749153732
5	76187	22884.171045408425	7988.8596040039
5	76256	22907.597868613367	10845.930178497
5	76334	22926.580325020877	4407.1478549105
5	76355	22934.093933084262	20621.179208855
5	76375	22939.759726633158	6297.0241043553
5	76599	23013.180548624161	17754.186578817
5	76620	23018.229621356006	17756.840597035
5	76658	23028.953868973467	2321.5144550841
5	76663	23030.46379348601	2322.8155030247
5	76738	23051.629909805607	8038.5431930509
5	76745	23053.177054725427	4425.1417166072
5	76787	23066.195394275923	6319.6083521518
5	76814	23074.273439946798	4417.5079703404
5	76822	23077.700117571679	8038.3480912431
5	76886	23097.373464101395	6320.1032592329
5	76907	23102.41364245194	15960.363041153
5	77001	23130.433719469448	14310.349204024
5	77033	23140.327661600551	2326.746248447
5	77086	23157.26579424183	2327.9631137575
5	77151	23180.074382802129	15240.828458475
5	77183	23188.27137663833	4445.6695238302
5	77208	23196.70754254575	2332.7018701127
5	77243	23208.311406768514	15257.708499198
5	77359	23237.64047006297	13368.701172958
5	77369	23240.476556281402	12232.940516421
5	77382	23245.598919829197	8094.3510170702
5	77446	23264.088357651264	4452.3999948512
5	77493	23280.151829941414	13391.565937283
5	77503	23283.020142081223	2336.0397395764
5	77559	23302.866231427186	2345.9673272357
5	77637	23325.460265415752	2347.5521352304
5	77655	23332.181472315857	18015.293227347
5	77678	23340.095966879682	11052.995330681
5	77801	23377.318522788615	11071.064109123
5	77828	23385.192068022707	17486.172144271
5	77838	23388.119210753807	21030.89119983
5	77966	23422.507663822949	4484.7730465473
5	78104	23466.609908941789	2359.8380545104
5	78172	23484.993753518753	8190.1918156165
5	78222	23501.052189882875	14555.923585436
5	78257	23512.973585217663	4499.3191683175
5	78290	23521.576016365209	13533.095760866
5	78346	23537.787545069152	14578.557666707
5	78362	23540.732221473412	6441.2774642321
5	78447	23571.20637519139	4503.2533893049
5	78457	23574.299221769936	8219.7289152963
5	78473	23577.166703752644	6460.4998932682
5	78551	23600.473858683214	2372.6208551443
5	78578	23608.343476191379	4507.0852909347
5	78666	23634.47664020642	19290.097892803
5	78727	23655.430933752872	14677.84082831
5	78730	23657.314675704792	16375.671559047
5	78835	23687.802742977656	15611.3531023
5	78842	23689.357041507057	12494.38375092
5	79013	23741.444399147138	6508.9736514808
5	79166	23784.869909461618	6531.4442791993
5	79176	23787.80906048476	8328.3149731623
5	79256	23810.783874313564	8335.1824595787
5	79401	23852.763752037316	2404.8888888907
5	79476	23874.348280536414	12616.064641402
5	79484	23877.877135587328	4575.7485037928
5	79588	23906.64082586135	11356.812694992
5	79591	23907.906788200543	4579.3592574492
5	79612	23914.751045182192	11353.550165324
5	79860	23984.971752898987	21584.331904814
5	79870	23988.863189292732	12675.704731934
5	79946	24015.203760108757	6579.158029253
5	79962	24018.356918106261	14890.685939689
5	79965	24020.028410120528	4586.5319116214
5	79988	24026.888323524627	13837.933005492
5	80000	24030.611251761052	14894.827270441
5	80135	24075.508367179369	18591.455790142
5	80341	24133.52124782376	17410.134691761
5	80346	24135.217034396753	2425.0142951936
5	80387	24145.651070242226	6604.6598781842
5	80402	24150.843659953996	8418.4807245589
5	80408	24154.402077976651	13887.846056274
5	80427	24162.310395239516	14945.73056032
5	80462	24172.699070339873	16703.731287843
5	80551	24195.936534776203	6619.2141364247
5	80711	24247.638121440296	18718.80925786
5	80794	24269.424953390134	6624.3774184923
5	80797	24270.797047885356	17510.707532195
5	80867	24293.173226075096	8458.5524584544
5	80934	24314.989686543715	15029.434873374
5	81009	24335.765433610825	10061.38957549
5	81093	24356.825069669669	6649.8776219863
5	81185	24381.366669270805	2436.0665259524
5	81236	24396.73350250203	8477.9050877905
5	81311	24423.508261469228	16851.915835955
5	81319	24426.887558455987	2438.5695397098
5	81339	24433.777686077579	4654.966808107
5	81344	24435.068703875355	6672.2578882465
5	81378	24441.182458857111	4652.9525618649
5	81391	24446.223144339993	2444.5162611764
5	81440	24459.822456247769	8489.3816556797
5	81475	24471.662011810056	10114.815978207
5	81488	24476.072676221132	18277.041612233
5	81650	24523.639892471061	11568.767846971
5	81678	24532.513195038625	2446.8936621961
5	81768	24558.79421248738	15157.268193848
5	81776	24562.553812236938	15160.360912257
5	81869	24586.853925161104	4678.9554812355
5	82026	24632.258427588494	4682.515022139
5	82120	24660.490364798382	4683.9048748207
5	82145	24668.06148271583	2459.6531935921
5	82168	24675.42952624172	6740.3974550096
5	82242	24698.714795930536	2469.7998512708
5	82255	24704.211728258097	18460.471054941
5	82277	24710.345931565427	14164.733668565
5	82422	24753.971512912252	6759.0515674767
5	82573	24795.892578890028	4696.9475364398
5	82581	24799.445123612734	10256.128274251
5	82610	24810.79046007082	13046.400211358
5	82629	24815.658362574541	15331.032156624
5	82745	24848.829955376911	10266.397735956
5	82848	24882.303951667849	4714.0142794614
5	82913	24900.287163083669	4714.0134725339
5	82918	24901.937356460881	6790.4848980268
5	83137	24967.437688507738	4728.8280827109
5	83187	24982.570033185968	2479.9616741393
5	83360	25037.479780066427	8675.2133353426
5	83369	25039.144149686437	2485.1772489625
5	83399	25049.149040518928	4748.3740550446
5	83408	25054.583496628183	2486.8235051533
5	83443	25065.904085678088	11848.263967885
5	83496	25082.319107358197	6836.3301293836
5	83573	25103.510956576319	14426.059944526
5	83598	25111.187643758247	2484.2752079724
5	83636	25124.331383043939	11883.746693412
5	83809	25170.575209726061	4769.5709823607
5	83867	25186.908743076439	15575.161980177
5	83983	25221.100302215333	4778.9910926845
5	84014	25233.584632267844	4786.8564100869
5	84027	25238.618109062355	2491.9229940748
5	84039	25241.717412029061	8747.6493538155
5	84057	25247.702479461808	16600.030719503
5	84099	25259.876565945189	2498.1451505494
5	84122	25267.5331112171	6889.4797702102
5	84125	25268.94326887377	10469.297359013
5	84170	25282.780631724599	2500.8881389065
5	84205	25294.430938938859	6888.6489438647
5	84221	25300.00835236967	13303.571889433
5	84233	25303.705814775679	4802.116887729
5	84253	25310.035307999369	2501.6703711902
5	84378	25344.946027092862	13324.586196931
5	84427	25359.779476321529	18305.650228448
5	84455	25369.830347548465	14563.824670169
5	84470	25374.597732229757	6909.3289940811
5	84482	25377.885177574719	2503.4262617954
5	84514	25387.160761981124	2504.158476901
5	84517	25388.372483603882	21172.898175832
5	84540	25395.946164345222	8791.8080336917
5	84547	25397.150852343293	4814.5225544909
5	84567	25404.183466861436	6913.5993705617
5	84590	25412.198986407036	2503.4268068058
5	84615	25419.987706907506	6909.1187805094
5	84734	25458.439388717192	10532.134979743
5	84817	25484.688137333693	22057.695736415
5	84863	25498.107832827459	12021.100664495
5	84917	25513.581832330528	2515.8224860555
5	84923	25516.622287971008	2515.954248813
5	85007	25540.804405852077	12047.384912874
5	85061	25559.185811645766	6945.8753709982
5	85077	25565.899979637605	8834.8917473357
5	85083	25568.42538971458	2519.4561104185
5	85174	25594.287976133118	2524.0203670414
5	85182	25597.310701537917	2525.5775606651
5	85200	25604.155361366871	21330.658884487
5	85245	25615.422943875048	6955.3621779751
5	85250	25617.022094871889	2527.1085066841
5	85271	25621.292914511117	2525.6610844953
5	85278	25623.183044061291	10572.062715671
5	85286	25626.602173648815	10573.169348424
5	85339	25644.760615407344	22526.693247373
5	85370	25656.010027769062	13468.762249869
5	85408	25669.044924399296	4857.6453870409
5	85468	25682.139764568996	10593.159968513
5	85478	25684.915867598583	4862.8207635217
5	85508	25695.165234926758	6973.6384696084
5	85564	25711.873702244131	13501.314871302
5	85624	25730.852831004233	12132.41916213
5	85686	25745.89235980329	2533.5677062505
5	85701	25750.306216609151	12146.467082815
5	85731	25759.282925701373	14771.967202212
5	85839	25791.470790310061	4881.1017624466
5	86028	25845.147514341444	13569.438674953
5	86087	25863.482406816489	13582.143353814
5	86113	25873.107491659416	7013.9987789883
5	86154	25884.330059165365	13598.045784446
5	86198	25900.601149593151	13610.046682784
5	86203	25901.812387645474	17021.256589257
5	86316	25935.075296727609	7020.3285400672
5	86350	25947.502883596759	10702.411760644
5	86358	25950.917134371441	22471.515202043
5	86370	25954.739955908846	4910.4965654503
5	86401	25962.763614315022	4916.3533498416
5	86513	25994.642707394478	2564.2749296148
5	86535	26001.164035161999	10727.597224539
5	86573	26009.875328460936	16049.62163385
5	86588	26014.618119341177	4924.9380309
5	86591	26016.424783216086	17093.560333448
5	86607	26022.983862579469	8991.5782619494
5	86632	26030.373187763844	2560.6943128054
5	86637	26032.224354854267	4930.7699426177
5	86664	26039.884461132105	2564.7400564945
5	86671	26041.606907612498	10753.207252291
5	86688	26046.402938567702	2565.8003930301
5	86728	26060.437794632879	4941.1342635304
5	86756	26069.664386126068	13704.492689107
5	86761	26071.480894554448	9007.9541620171
5	86769	26074.773631359865	23482.940659639
5	87063	26164.430913721623	7080.2563281647
5	87125	26184.467138512472	9045.8686656877
5	87192	26203.075210834893	4959.2330710406
5	87237	26216.488651332484	4963.8441688969
5	87240	26218.159920335227	19653.306620727
5	87410	26266.426068780985	7123.5161480678
5	87523	26299.211809757208	9093.5252641117
5	87541	26305.141588132871	20910.407046289
5	87587	26316.878766350119	10885.533878408
5	87609	26323.946466662965	7133.3889743282
5	87782	26375.372799244566	2593.4138975102
5	87792	26378.392253305992	12486.657574236
5	87857	26399.606793445766	4999.0268473984
5	87877	26406.221768500514	2600.9129769451
5	87907	26415.926130635895	9141.5125952865
5	88032	26451.009748393344	9156.3725633987
5	88035	26452.701791047352	5013.2742518859
5	88043	26456.086681730533	5013.8041248906
5	88089	26469.484548127698	2614.7307120921
5	88109	26476.684865823622	10975.722212641
5	88112	26477.890898025829	13949.459318893
5	88200	26503.308719080734	5037.7480444907
5	88225	26511.260388964462	15247.921798313
5	88336	26545.17788288263	5035.0587914264
5	88347	26549.049140211804	12573.763658105
5	88390	26561.278993842429	11008.016616469
5	88407	26565.973439002087	21124.998166706
5	88481	26586.991347640803	11010.056710685
5	88547	26605.784252224727	21163.675678239
5	88587	26622.781007210775	15305.033064136
5	88592	26624.101456857896	19249.624093708
5	88619	26631.731142652272	12609.436775038
5	88650	26640.018825445561	16462.340291607
5	88729	26661.359263319202	5044.9906149815
5	88752	26669.611308679969	11015.5078467
5	88757	26670.880449293979	2631.2907511142
5	88762	26672.366498285771	17521.78530558
5	88784	26678.330418313161	2621.5778982563
5	88815	26687.775254434958	2616.7603547341
5	88845	26696.373049544968	5055.769774571
5	88904	26715.369722363591	7229.9804260359
5	88961	26733.619992073305	15356.839360386
5	89010	26749.28956413591	20030.614577746
5	89041	26759.787383140863	16506.773983663
5	89128	26783.775987342983	15371.395514219
5	89134	26786.929842211731	2643.7749658574
5	89171	26800.678541046434	9249.9288206366
5	89231	26818.7163193679	17598.03303449
5	89312	26840.859765477717	2630.7879991871
5	89335	26848.665502461098	7255.5002742323
5	89349	26852.022144502267	18565.462509895
5	89448	26879.660473621315	2634.3539682432
5	89549	26912.949432523414	15423.442989283
5	89640	26940.648391945713	14135.472815901
5	89657	26945.354900837742	7282.5778280828
5	89713	26964.947778545372	7287.7991945346
5	89868	27011.56706896839	5107.4210527257
5	89930	27027.268610956197	21461.573379593
5	89937	27029.263119230097	2668.5213527238
5	89959	27038.757125290161	11135.811972891
5	89990	27046.471789257277	2671.1998463861
5	90012	27052.141165979814	2672.7557500194
5	90040	27061.49105192316	5111.5821345167
5	90050	27065.058040466208	2674.0649794543
5	90063	27069.689581222694	11151.986402434
5	90105	27082.935531461287	5111.6135452146
5	90113	27086.487823526609	9346.7093650682
5	90257	27131.115025232966	20949.785176737
5	90328	27148.741993603717	7335.4266525905
5	90399	27167.821994102422	16717.380587327
5	90470	27188.337910919314	2679.0440723473
5	90502	27197.597851532933	16741.947388906
5	90516	27203.845733382043	2681.755460816
5	90565	27217.823132126828	7347.4351396831
5	90568	27219.772117449765	9385.2577949706
5	90632	27238.039501136961	2683.2298566085
5	90658	27247.483359293315	5145.0382311146
5	90722	27264.595236091922	2691.8633503224
5	90806	27290.342385064113	5153.2295765657
5	90823	27295.227967201035	9415.9759604439
5	90849	27305.119772051509	12873.538824481
5	90922	27324.939342500876	5166.4301256934
5	90952	27331.798468176696	2706.0823419624
5	90998	27348.534971221584	12911.021031725
5	91105	27375.673395434255	12926.957131905
5	91163	27395.578060886869	16864.748919033
5	91174	27400.024165760959	12930.359072001
5	91219	27413.890993781435	2706.7557193614
5	91243	27420.327998693707	15707.543683184
5	91246	27421.712695816393	9461.762568255
5	91366	27454.673750919338	12944.726786793
5	91445	27479.347925869051	9470.5426451275
5	91522	27500.456744825515	21834.93177023
5	91549	27508.594527122427	7421.4921045095
5	91597	27524.604439402046	14424.532552566
5	91664	27546.750821253518	15778.082263061
5	91698	27557.059050385888	2729.2476966918
5	91733	27568.016741402308	24215.132841376
5	91736	27569.793927922147	2731.6993371317
5	91829	27595.97904880089	2734.7746383593
5	91846	27600.745133487184	2736.3849037445
5	91907	27619.081728712331	7466.1864864038
5	91983	27640.267636985007	11367.712546363
5	92108	27675.559773085129	7470.068823555
5	92224	27713.009060311741	14530.534167588
5	92227	27714.287488741292	9543.0480211387
5	92237	27717.292634050226	2746.8973045771
5	92242	27718.580401572636	9544.7898879874
5	92249	27720.085087842545	11396.665724785
5	92340	27743.946381522207	23119.006504152
5	92399	27762.97112187804	5232.0077687185
5	92497	27797.346839598432	13124.780174899
5	92514	27802.023734283686	7502.1254649437
5	92665	27844.900955705214	23670.62386367
5	92728	27862.659541157876	7520.1514376472
5	92769	27877.578309918064	2752.9751481654
5	92786	27881.980817474852	5239.9277044294
5	92791	27883.223787578622	18288.700002925
5	92855	27902.241725709344	2757.0151311728
5	92922	27920.706224099787	20928.667903673
5	93002	27945.574045655556	17231.724739559
5	93027	27953.924341440253	7548.547889993
5	93043	27959.270250131056	7542.0241871108
5	93155	27995.157449324671	7554.5240805133
5	93192	28005.573559579309	11514.280519971
5	93197	28006.967458536718	2766.4064016625
5	93267	28024.912405961622	21695.608226295
5	93276	28029.138705383112	21698.820310063
5	93368	28058.256925170369	21704.668967483
5	93441	28075.148887179477	9656.0822738897
5	93525	28101.465211981409	5273.0578949352
5	93693	28145.25243792428	5274.7166103537
5	93701	28148.519652529306	7588.7882639658
5	93768	28169.066558102764	13272.610201951
5	93819	28182.610604678527	2769.8654641606
5	93822	28184.46776732827	9680.267458676
5	93849	28195.830726749882	2768.1828302032
5	93906	28209.729481860496	5287.1508075169
5	93935	28217.936313169137	13303.123522928
5	94022	28245.664696648033	2768.1638085759
5	94052	28255.185196976425	5294.9494767136
5	94102	28267.407040161329	13309.42423519
5	94107	28268.807635544303	7605.1498561008
5	94148	28282.520259615096	7608.3882577512
5	94267	28318.836407276678	14825.979832227
5	94333	28341.421472704845	2767.038057303
5	94393	28353.933890662962	11621.065637733
5	94536	28398.064891244161	7636.4370455487
5	94587	28408.908007165665	21269.082431793
5	94615	28418.398276253665	14870.319335095
5	94637	28425.594441631312	7630.4467268634
5	94714	28449.98279559041	2779.589106182
5	94947	28520.810458163421	5321.1624363836
5	94977	28530.307414064619	14931.040801359
5	94980	28531.559824824582	13402.385152335
5	95002	28537.927914628821	21377.301848775
5	95103	28565.550755472731	11699.798727267
5	95131	28575.594623057793	11706.439480342
5	95157	28581.815898630458	5348.4365452514
5	95192	28592.528294832507	2801.8643374757
5	95283	28618.868820681112	11726.565166251
5	95340	28636.929225708047	2809.8064769283
5	95351	28642.078784337143	13463.945354295
5	95443	28668.682254370922	7711.795073947
5	95449	28671.987893506946	15009.067893531
5	95549	28701.131460107366	2817.7317302104
5	95637	28725.371158189015	11761.163355764
5	95652	28729.775546089993	22837.036309145
5	95672	28736.336521636756	23937.67341916
5	95675	28738.186347782673	2813.4144218144
5	95685	28741.122030372979	19844.291337386
5	95770	28767.289569244784	16451.881839952
5	95933	28812.03850955467	5386.2989692888
5	95957	28819.272891217165	11801.779023027
5	96094	28859.705272098514	2821.2583262999
5	96134	28871.886359980026	11826.489151587
5	96169	28886.180752860077	13583.50044749
5	96305	28925.612908919222	2818.6021467851
5	96316	28929.867001138694	5392.7559609362
5	96361	28943.519388282365	7766.5865183335
5	96392	28951.480729903906	9906.1161827397
5	96568	29001.935784356361	20945.883218886
5	96587	29006.696467110952	2827.0983339271
5	96605	29013.044169457694	15195.492399893
5	96659	29029.202824801272	7787.558203141
5	96669	29032.383609256214	5411.6147054029
5	96677	29035.955165278791	5412.3735188807
5	96741	29058.900572955487	2829.2535208917
5	96744	29060.713653183235	16633.063721544
5	96751	29062.246249083495	9937.7242263558
5	96756	29063.656383549674	2832.9413876217
5	96770	29066.512490631892	17886.997884675
5	96797	29074.129999748869	2834.1299974636
5	96873	29096.962300095028	7814.1894908509
5	96947	29119.250936689668	19075.390702669
5	96991	29131.995536959612	2842.6296633722
5	97026	29143.632652704113	7825.7764791351
5	97036	29146.824885320545	2846.2894198696
5	97055	29154.89046548649	5434.3082699153
5	97060	29156.395520228029	9981.567622329
5	97118	29171.827945713022	22581.112233391
5	97124	29174.899430546046	9983.9613123001
5	97149	29186.14010122388	9986.5470446648
5	97198	29197.678598025883	9987.8513019038
5	97242	29210.432979695197	7844.4662028792
5	97274	29220.641715142946	10004.095604266
5	97309	29232.103372729453	15345.212332697
5	97345	29244.742323019239	13784.983048043
5	97404	29261.95315511457	18032.87054944
5	97425	29266.856805992008	15370.913142953
5	97450	29274.612654985742	2855.4786200408
5	97596	29315.695857720891	10036.782322157
5	97712	29353.742639401066	12040.900695002
5	97725	29358.398031617771	2859.9082346111
5	97817	29380.572988004306	2865.0384419425
5	97820	29381.915231315674	2865.1687491513
5	97856	29390.741912766056	5488.4223247308
5	97888	29399.46308134708	15435.358668283
5	97926	29408.626569620031	2865.2299211703
5	97944	29414.437015105295	7906.2215995667
5	98119	29464.855239140124	7929.3357020258
5	98201	29490.746556488866	2879.3837048973
5	98216	29495.265365482563	10099.474540613
5	98234	29500.77509370956	12096.059315949
5	98247	29504.969827622245	21328.395322101
5	98257	29507.574971396545	13910.071549117
5	98265	29510.379329027677	10102.080305972
5	98407	29555.864840812306	5519.3886638203
5	98417	29559.577125977795	18206.38948989
5	98440	29566.907895259629	12092.88986602
5	98457	29571.69931936066	20420.2241244
5	98525	29589.683742382258	16939.780435231
5	98582	29607.815863660604	15525.339694894
5	98642	29627.740307756954	20434.67370608
5	98734	29656.945764576339	2887.8614722012
5	98740	29659.842554404654	22211.660700155
5	98789	29674.639952551642	5534.256149438
5	98818	29683.077857364597	2891.6651685007
5	99024	29742.091173525039	10150.479287409
5	99097	29761.871839907836	13972.947790715
5	99155	29781.934898710695	12176.807511103
5	99180	29789.133426929151	2897.7214318138
5	99199	29793.677654212413	23688.003406685
5	99209	29796.942969486376	12186.29039743
5	99436	29857.074463016614	10190.806624877
5	99459	29864.642916499525	19532.150707636
5	99510	29882.043743697628	17048.211512514
5	99569	29898.528784222416	2902.5021050893
5	99708	29940.683022139294	19570.149559147
5	99744	29950.585456261856	18409.973377645
5	99842	29980.13713576596	2907.4851733986
5	99885	29991.181324204504	22434.880180146
5	99890	29992.759699628576	10235.76860953

