version 2
run Third_exit_2-16-20191114-11:42:54-9003
attr configname Third_exit_2
attr datetime 20191114-11:42:54
attr experiment Third_exit_2
attr inifile omnetpp.ini
attr iterationvars ""
attr iterationvarsf ""
attr measurement ""
attr network ResponseTimeNetwork
attr processid 9003
attr repetition 16
attr replication #16
attr resultdir results
attr runnumber 16
attr seedset 16
param **.Source.interArrivalTime exponential(6s)
param **.jobPriority bernoulli(0.8)
param **.PS.serviceTimeU1 "uniform(1.2s, 2.0s)"
param **.PS.serviceTimeU2 "uniform(2.4s, 2.8s)"
param **.SS1.serviceTime exponential(1.4s)
param **.SS2.serviceTime exponential(2s)
param **.PS.exitProbability bernoulli(0.2)

vector 0 ResponseTimeNetwork.sink lifeTimeU1:vector ETV
attr interpolationmode none
attr title "lifetime of arrived jobs U1, vector"
attr unit s
vector 1 ResponseTimeNetwork.sink totalServiceTimeU1:vector ETV
attr interpolationmode none
attr title "the total time spent  by arrived jobs U1, vector"
attr unit s
vector 2 ResponseTimeNetwork.sink lifeTime:vector ETV
attr interpolationmode none
attr title "lifetime of arrived jobs, vector"
attr unit s
vector 3 ResponseTimeNetwork.sink totalServiceTime:vector ETV
attr interpolationmode none
attr title "the total time spent  by arrived jobs, vector"
attr unit s
vector 4 ResponseTimeNetwork.sink lifeTimeU2:vector ETV
attr interpolationmode none
attr title "lifetime of arrived jobs U2, vector"
attr unit s
vector 5 ResponseTimeNetwork.sink totalServiceTimeU2:vector ETV
attr interpolationmode none
attr title "the total time spent  by arrived jobs U2, vector"
attr unit s
vector 6 ResponseTimeNetwork.QueueU1 queueLength:vector ETV
attr interpolationmode sample-hold
attr title "queue length, vector"
vector 7 ResponseTimeNetwork.QueueU2 queueLength:vector ETV
attr interpolationmode sample-hold
attr title "queue length, vector"
vector 8 ResponseTimeNetwork.SS1 queueLength:vector ETV
attr interpolationmode sample-hold
attr title "queue length, vector"
vector 9 ResponseTimeNetwork.SS2 queueLength:vector ETV
attr interpolationmode sample-hold
attr title "queue length, vector"
0	10165	10001.255983441209	1.406439048611
0	10170	10014.708112647895	1.474024045281
0	10180	10033.306082716045	1.427165958472
0	10190	10039.353468761758	1.989961478487
0	10195	10041.367181956856	5.944629693916
0	10204	10044.543449563024	1.351776839793
0	10207	10045.837667412174	1.681864081416
0	10215	10052.550838702172	8.124461571484
0	10220	10066.896129489422	1.959690658189
0	10235	10077.952025535543	3.459998017524
0	10245	10088.427967793641	1.782370145805
0	10257	10099.144818520932	1.907997472771
0	10260	10100.884456323101	2.156000219299
0	10265	10106.280289696204	1.359830576181
0	10270	10109.452643309658	1.784737391211
0	10282	10122.747895171741	3.609361221858
0	10287	10124.168237149777	3.39333390569
0	10292	10125.390044958951	1.664939206637
0	10300	10146.504433166035	1.357259139232
0	10305	10151.685596063947	1.65758592803
0	10310	10154.820409650861	1.568968223408
0	10324	10170.77093719274	1.483588875271
0	10327	10172.50517526597	2.930419425174
0	10330	10173.90067926042	3.974382462054
0	10355	10210.363469107609	3.181689479831
0	10360	10223.027481349173	1.824741539918
0	10365	10235.561429904958	1.594426967762
0	10370	10239.902285425242	1.341195829958
0	10375	10248.500442092644	1.658503248729
0	10380	10262.689077723601	1.517725858465
0	10385	10270.398790632753	1.788944048434
0	10395	10279.075294437868	1.271517378092
0	10405	10292.841889932831	4.133538493705
0	10412	10294.647070543206	1.328719558381
0	10427	10299.196751289507	1.313070920482
0	10430	10300.795579726128	4.816891816318
0	10437	10306.837502831421	1.904492650367
0	10447	10316.529205917356	1.882542443462
0	10450	10318.324753220727	2.093041368244
0	10455	10335.550843119928	1.490557773784
0	10460	10343.107133970745	1.879326102138
0	10467	10345.424665718542	1.876329800859
0	10477	10348.469210784154	2.451787893246
0	10484	10350.408234420808	4.208859790534
0	10492	10353.917180468159	1.731995862288
0	10500	10358.635706599961	1.344595424272
0	10505	10364.958921992379	1.3639731206
0	10517	10384.261627357422	1.377798921242
0	10524	10385.755521073161	4.311431072497
0	10544	10394.679600146278	1.660865499824
0	10547	10396.051034797407	2.896912650585
0	10554	10397.79779935149	3.617650688745
0	10559	10399.505608821339	15.192220507418
0	10583	10406.243863581171	10.130705417256
0	10586	10408.20289347866	5.644040747737
0	10589	10409.817967228456	10.916799474652
0	10592	10411.140527951582	5.775081786377
0	10597	10412.672239336795	11.82024852179
0	10624	10425.510351531969	6.772035357069
0	10629	10426.725206218117	3.761316387299
0	10637	10430.080838425846	4.171374532572
0	10640	10431.566286897862	12.930031861551
0	10650	10445.142033116728	4.012976351924
0	10655	10448.274008951547	1.212331583723
0	10677	10474.895000613599	1.387467497401
0	10680	10476.156176341257	5.988395269881
0	10685	10485.964736579795	1.742586428672
0	10690	10489.152098311956	1.360362021998
0	10695	10490.865192020148	1.321235561557
0	10702	10503.76352144823	1.61715307422
0	10705	10505.704240721358	3.263289538521
0	10717	10510.902801784993	2.565217510231
0	10720	10512.262930447542	4.546661154926
0	10725	10528.956818037342	1.884497555159
0	10735	10544.784915966238	3.619396147184
0	10745	10554.503100984954	1.944927396998
0	10750	10557.005766081989	1.792362252995
0	10767	10563.654985594813	1.486298868433
0	10775	10568.689057812357	1.709877589718
0	10787	10578.979190518716	1.34657686986
0	10795	10582.442312463381	3.057979821006
0	10800	10584.88242690713	1.226179862767
0	10805	10600.676285142466	1.337582590617
0	10812	10603.143230369225	1.607733741589
0	10825	10640.656855412161	1.899398196595
0	10830	10645.762102230281	1.641273373552
0	10835	10653.56057016483	1.659077471122
0	10845	10680.863611367939	1.937284741551
0	10860	10712.961142780252	1.227829608135
0	10872	10719.704299002246	3.616320157843
0	10875	10721.269978337654	2.777292975728
0	10880	10731.551774678784	1.453216022812
0	10887	10735.549860681433	1.651196293347
0	10895	10738.754386130374	2.926175783069
0	10919	10758.406590407256	1.982150149718
0	10922	10759.66249550442	2.032983762318
0	10940	10766.281424232654	8.130640277283
0	10945	10770.935816043245	1.873876149207
0	10952	10775.970279582197	1.609044185653
0	10955	10777.586171138639	1.805945757916
0	10960	10784.923674460825	1.916270013712
0	10965	10791.508404987984	1.343009583466
0	10977	10803.593053119542	2.38430913122
0	10985	10806.197563002171	1.842844797049
0	10995	10814.558837661463	1.245189825626
0	11000	10817.170111325521	5.388820712649
0	11005	10824.137476739722	1.383305606432
0	11010	10835.387882474569	1.779190746136
0	11022	10857.692301995691	1.504422395863
0	11025	10859.511785138223	2.209422468902
0	11030	10862.532983910935	1.987062257901
0	11035	10866.093289011417	1.599353562482
0	11045	10873.844138836728	3.439252439187
0	11050	10886.184299173578	1.456593730487
0	11055	10904.255446459478	1.87086623963
0	11060	10908.798791228096	1.600690312684
0	11067	10913.173172815691	1.705358199775
0	11080	10938.397385288959	2.343798015486
0	11094	10950.732993563745	2.902835113585
0	11099	10952.02724785443	2.930520255627
0	11102	10954.006688315715	6.573422197625
0	11110	10958.522390040864	6.695806189875
0	11120	10978.859793191361	1.591331412643
0	11130	10986.995001208099	1.34953281749
0	11135	10993.988262398885	1.856057423539
0	11140	10997.290705073784	1.652882851847
0	11145	11000.482774318762	1.499322565831
0	11150	11005.195118752754	1.524805473909
0	11155	11007.182885785427	1.237375209853
0	11160	11015.376123700926	1.567209162563
0	11165	11020.591764488593	1.383399121836
0	11175	11034.226944018685	1.248984885402
0	11185	11039.048339610706	2.561575044488
0	11196	11044.303964504529	1.821435081214
0	11201	11045.550841414672	1.846140168341
0	11204	11047.523392490041	3.729592584134
0	11209	11049.143251808476	5.128329264789
0	11212	11050.990775548037	5.67054769383
0	11217	11052.469128576968	4.163114229405
0	11220	11054.098111779358	1.82986421951
0	11225	11062.60902282582	1.476767537184
0	11244	11072.420467420374	1.506206052005
0	11249	11074.370761809018	9.220720500477
0	11252	11075.964703336623	1.742411628242
0	11260	11083.829165881212	1.763428836688
0	11272	11087.940821839325	3.20739542461
0	11275	11089.936674128115	2.316863754923
0	11280	11091.842328060682	1.690342121758
0	11290	11109.47970268466	1.598359884508
0	11295	11121.756443485799	1.369928638637
0	11300	11131.990875955973	1.463338908553
0	11310	11159.425343148595	1.84209489245
0	11315	11164.729460414133	1.687001432292
0	11325	11197.085922317915	1.635336986929
0	11335	11206.717601595112	1.59207684435
0	11340	11210.685709358893	1.845360621251
0	11345	11213.041913250183	1.70890051201
0	11350	11216.678455902745	1.845373932458
0	11355	11218.901891013097	1.219374359213
0	11382	11236.007406015275	1.534097328968
0	11400	11250.990228891611	13.521355073718
0	11405	11252.717799777846	1.234812402539
0	11410	11257.433726683204	1.76637198925
0	11420	11263.809154969441	4.690323738137
0	11430	11272.429644043921	1.694276743568
0	11435	11281.734860760431	1.778387043066
0	11440	11284.432686211664	1.959788806364
0	11445	11297.606785852833	1.334010158852
0	11465	11311.399233430716	1.585591592453
0	11470	11320.152888518183	1.329832063988
0	11475	11322.82426671026	1.890596800297
0	11482	11324.962341021994	1.453456569649
0	11490	11327.97420371763	4.013581662748
0	11504	11335.047886018604	1.807599370927
0	11509	11336.752954730168	5.69252391678
0	11514	11337.963053441383	3.629583041722
0	11522	11341.297413423807	4.179004380981
0	11525	11343.282322229222	8.120699121967
0	11535	11382.308560905707	4.0175807491
0	11547	11389.423607992714	4.929469453724
0	11567	11403.443126651087	1.281368775293
0	11607	11417.229788404281	3.349662147135
0	11612	11419.154135878893	13.941848865152
0	11617	11420.69543692893	2.519562677413
0	11627	11424.746664019366	5.259013164924
0	11630	11426.013498654281	2.024017171378
0	11640	11439.351479392162	4.935991630337
0	11652	11453.296902618205	1.749665364064
0	11662	11460.535061277699	1.839228732884
0	11675	11465.214471586833	1.71690282754
0	11680	11467.17002539687	7.100476711165
0	11690	11478.472676559437	1.327208927087
0	11695	11480.460356717189	1.283649836481
0	11705	11526.002637067792	1.715008316375
0	11727	11536.430364399158	8.413119231675
0	11747	11577.635710386545	5.354168919288
0	11750	11579.442106791758	6.149693479544
0	11755	11598.148822465229	1.229734911583
0	11762	11609.233444669432	1.642826388031
0	11775	11615.178245483216	6.885373340901
0	11780	11623.262896472028	1.372451264784
0	11790	11637.662995094412	3.688789246948
0	11795	11640.98655603067	1.887784984522
0	11800	11653.130949045554	1.434955884516
0	11814	11663.248758971649	3.804089943297
0	11817	11664.935659430879	3.26749911261
0	11820	11666.236469287569	3.806198439486
0	11825	11669.673585101117	1.265043734573
0	11830	11702.988198372248	1.659285335243
0	11835	11706.498435744971	1.998437509499
0	11845	11733.507308910327	3.09407285572
0	11860	11745.593546011847	1.795995558612
0	11865	11750.062995507422	1.82691695001
0	11870	11754.930923158015	1.301478048787
0	11879	11767.484458864919	1.858200479485
0	11882	11769.091779771327	3.08203799849
0	11887	11770.598336849987	3.909815536841
0	11892	11772.366584260642	1.93070011904
0	11897	11774.080081401087	2.057808705229
0	11907	11782.342728412365	8.286962912088
0	11910	11784.184817193476	2.694828472394
0	11917	11787.641776187055	1.242642253637
0	11920	11788.978152962856	1.595538854862
0	11942	11797.762177113344	2.170917414894
0	11945	11799.492787624051	8.435116202606
0	11962	11823.770220955766	11.379018339133
0	11970	11827.323810525768	1.403155427799
0	11975	11840.846243522658	1.298761862144
0	11980	11854.786944482949	1.355055505969
0	11992	11858.503326273144	3.46737905287
0	11995	11859.890048366592	2.994462757876
0	12002	11861.95902461894	1.896458850801
0	12005	11863.735376584531	2.011058309039
0	12010	11876.386196669479	1.484546256997
0	12015	11884.385099267406	1.207724755071
0	12020	11899.319797896862	1.561391550489
0	12025	11906.13446684291	1.266710237972
0	12040	11959.214460599014	1.579448437691
0	12055	11974.790386299495	6.305331380778
0	12065	11979.714085965286	2.514386731404
0	12070	11982.403195738172	6.323995038378
0	12075	11994.918152433982	1.60203329362
0	12080	12017.573279763098	1.520377529971
0	12087	12028.172896795159	1.55733625032
0	12102	12044.625399959221	1.416248457506
0	12110	12048.077707716584	7.462431568263
0	12119	12050.355294866466	1.632880988717
0	12124	12051.83311182724	2.424072773881
0	12129	12053.096101135366	3.465933852329
0	12140	12062.048112256809	1.691213108785
0	12155	12096.535889362015	1.923648359114
0	12167	12099.414230268385	2.503104004062
0	12170	12100.737295779336	3.044725674711
0	12182	12106.362465667162	1.686980512179
0	12192	12109.813565318684	1.787490765937
0	12212	12116.239579856049	2.88667211359
0	12215	12117.790806501571	14.392897869228
0	12220	12120.391065023389	1.683370971307
0	12227	12123.737694626192	1.538722909987
0	12230	12125.631884588005	3.347974773709
0	12240	12142.21774821509	1.802215366438
0	12254	12149.03109438085	2.728556625938
0	12257	12150.495960255535	1.531423925055
0	12270	12160.743342426294	1.290682346746
0	12277	12169.860220043628	1.201661479659
0	12282	12171.133815833075	2.07055931356
0	12297	12180.623491768941	4.512850374822
0	12302	12182.363168378949	3.262699085265
0	12305	12184.324638596952	2.41929431795
0	12310	12192.118242040023	1.690534469113
0	12315	12198.442071590093	1.826406852901
0	12320	12200.904368474626	1.590436031856
0	12325	12204.136037302114	1.88818689771
0	12330	12210.157766057446	1.935629432835
0	12337	12216.694449696725	1.506228831597
0	12340	12218.510706250591	1.86708726205
0	12350	12238.707969699555	3.687349178825
0	12367	12247.246342302401	8.014101844231
0	12372	12249.156605437126	2.131188116631
0	12375	12250.847573586095	2.439267979623
0	12380	12255.468751718919	1.450941639394
0	12385	12269.74097019002	1.711055858247
0	12390	12276.284684518937	1.505794471316
0	12395	12283.04968109098	1.821765154228
0	12400	12300.163824615468	1.920467518456
0	12417	12321.021520543307	1.932066494413
0	12420	12322.410736976959	1.977568495657
0	12442	12362.58051036613	1.765195176192
0	12445	12364.032329723033	2.283722308433
0	12454	12365.496256098331	1.346552354842
0	12457	12367.069135349051	2.244052156201
0	12460	12368.643678383709	3.68045837681
0	12475	12381.668188154403	1.385833331756
0	12490	12398.285873249578	1.726165984385
0	12500	12406.957723482447	1.992070511915
0	12510	12413.521145538915	4.781348585386
0	12520	12433.911846305046	1.421613880433
0	12542	12452.507370995797	1.436698441766
0	12549	12454.264723599583	19.594994705481
0	12552	12456.099847821772	3.239600919388
0	12557	12458.097155884907	15.047210169261
0	12560	12459.903804558024	3.076742622008
0	12572	12465.964448448815	3.553040136697
0	12580	12471.030287097315	5.976930932094
0	12600	12482.009138914456	4.985521608033
0	12612	12505.353711335845	1.614839015715
0	12615	12506.614172674827	7.059227882133
0	12622	12517.80553550531	1.869775587134
0	12625	12519.731841818773	2.116641477832
0	12630	12527.931992998217	1.744890377298
0	12645	12536.449387506968	2.112123305804
0	12660	12546.956802627389	6.491715059162
0	12665	12563.762224431979	1.711370109394
0	12670	12569.074933028226	1.793371937424
0	12682	12577.896356694175	1.454891546071
0	12685	12579.628219164683	5.774345724415
0	12694	12583.140672072271	1.938931667991
0	12697	12585.050270213248	1.983800560187
0	12700	12586.252627405213	3.132468252581
0	12707	12589.689511535647	1.481141203456
0	12715	12594.015122494952	1.639491356909
0	12720	12598.400266848036	1.635179928876
0	12730	12617.825868699657	1.685057231039
0	12735	12620.44072793925	1.34428845793
0	12740	12623.354535610393	1.872202639468
0	12745	12625.79694992626	1.631936049275
0	12750	12640.977869965069	1.401909177192
0	12762	12657.033912284322	3.737153700075
0	12765	12658.281565769784	1.810583283279
0	12770	12660.721793802575	1.311934631504
0	12775	12699.624257638261	1.551080031879
0	12792	12712.522380179336	5.300621887349
0	12800	12715.175857154077	1.991578096093
0	12805	12717.950954823185	1.253480594791
0	12819	12723.848569611616	1.476597550325
0	12822	12725.414352518849	2.591944822364
0	12825	12726.726084199704	3.696562304083
0	12830	12735.62622563258	1.908362084068
0	12837	12748.689627605325	1.487300573662
0	12840	12750.00355528651	2.710894592272
0	12845	12755.379520951025	1.909830288403
0	12850	12764.63575602204	1.669030406699
0	12865	12773.617326788071	7.719547429025
0	12870	12786.961358586964	1.555029239319
0	12877	12816.573068374645	1.338214080781
0	12890	12822.737119159527	3.36309596729
0	12895	12827.082371068223	1.563604047149
0	12900	12834.386882710463	1.956375730969
0	12905	12837.852648192297	1.638427535258
0	12910	12843.99198067224	1.37112317346
0	12932	12853.269152873997	1.667212237054
0	12937	12854.482671606969	2.5559565262
0	12945	12858.320667412882	7.620049725422
0	12950	12871.495624687055	1.48126757089
0	12962	12887.243102229356	1.780715978518
0	12965	12889.06295591776	3.004290984652
0	12972	12906.622547705395	1.955082952045
0	12975	12908.125496941728	3.400277206146
0	12982	12911.23523692496	1.897107252665
0	12992	12915.227993910625	1.769538657926
0	12995	12916.622213071636	6.4975578419
0	13000	12924.783049533231	1.545689580031
0	13005	12934.676773272573	1.458311462402
0	13017	12955.085007859071	1.919088649377
0	13030	12963.653790515695	1.412837933563
0	13035	12976.493502662288	1.861230013892
0	13040	12982.122446567554	1.920642823912
0	13057	13013.42176920614	1.855706498958
0	13062	13014.971586393479	2.887762580616
0	13072	13019.125077542411	1.959469295479
0	13075	13020.499230372654	1.527723800548
0	13085	13031.424850467911	3.409404804284
0	13095	13042.124834861524	1.782592628151
0	13100	13047.367108960868	1.631219508871
0	13107	13057.810385521536	1.669081366621
0	13122	13064.631079779143	2.379573585885
0	13125	13065.9152311129	9.71412078809
0	13130	13072.664661443308	1.88957417123
0	13135	13074.82601105082	1.417895418592
0	13140	13083.689817082277	1.829156562686
0	13147	13085.823467731325	1.751896575838
0	13150	13087.222386231495	2.148695504729
0	13165	13095.255158718042	2.89923266671
0	13172	13099.497133961799	1.219000736065
0	13175	13100.899915973204	1.753366662366
0	13184	13105.053815282742	1.982358483411
0	13187	13106.614971158514	2.370099657487
0	13190	13108.522403423721	4.093572391238
0	13197	13113.808029909907	1.711079650372
0	13200	13115.359601681968	2.802702908833
0	13205	13131.254596442196	1.897777930275
0	13215	13144.194747036279	3.375744578022
0	13222	13152.87748208005	1.391277025454
0	13235	13161.517171808933	8.971100302161
0	13240	13164.124171553815	1.280552428588
0	13245	13167.130255228838	1.471742292307
0	13250	13171.42050697687	1.947546890564
0	13275	13180.33337621139	6.634222420957
0	13282	13182.096940384375	1.308479610272
0	13300	13190.549587013614	1.212823199481
0	13307	13191.852446053174	1.205293514766
0	13312	13193.057016534169	1.716518267967
0	13315	13194.564788293836	2.255889516138
0	13337	13209.951611662639	3.169903374295
0	13340	13211.898415184004	4.277512993999
0	13350	13218.92606700937	1.571832836792
0	13355	13221.669606395048	1.886676907167
0	13360	13233.338276236641	1.70610046722
0	13367	13243.934490860613	1.941530981474
0	13374	13245.809413403632	1.917825104405
0	13377	13247.041318825247	2.682569828691
0	13380	13248.473841097752	3.499524111755
0	13390	13292.123472615563	2.438655394316
0	13404	13297.276294486812	2.915002222479
0	13409	13298.574499600595	3.473519753776
0	13412	13299.865378722763	3.280919408726
0	13420	13307.115901507105	1.61946731396
0	13427	13324.032650637689	1.704300652444
0	13435	13330.210238479294	1.865017432347
0	13447	13342.391077184997	1.945154381543
0	13450	13343.966953684523	2.214876710229
0	13455	13352.558940587451	1.921956649423
0	13460	13355.282244252095	1.383417601325
0	13474	13366.196399790664	5.116036144685
0	13477	13367.997070100401	3.467120363289
0	13480	13369.207587722745	4.376478089366
0	13485	13371.701400985816	1.436311919987
0	13499	13377.592625605141	2.406979009954
0	13508	13379.285436773312	3.656373278933
0	13513	13381.155636637856	6.724495065584
0	13516	13382.40537821186	4.609956941066
0	13524	13385.853897704196	6.925558694877
0	13534	13388.893849006121	10.665208846366
0	13540	13391.875671411691	12.158307821441
0	13545	13393.807426410638	7.032078281384
0	13552	13403.443336622893	1.44203973487
0	13583	13413.371283204782	5.046420226615
0	13588	13414.741967665891	6.512910655513
0	13591	13416.052420497614	4.676809363575
0	13596	13417.833616714853	11.863067168561
0	13599	13419.296805433299	2.774781648508
0	13611	13422.826803443696	2.32588864289
0	13614	13424.558153395656	3.96697668585
0	13619	13426.405605447035	4.108222130263
0	13637	13433.482798177259	1.488821505755
0	13647	13436.62570406373	1.947736586441
0	13650	13437.895554890366	2.043649705425
0	13662	13440.856191814264	2.165690073491
0	13665	13442.309203554636	2.553053105167
0	13670	13447.987929740278	1.862311833166
0	13687	13458.576198313175	5.08283472173
0	13692	13459.957507799914	3.753568117802
0	13700	13466.573403877677	1.920539899729
0	13710	13478.679509435894	1.840561216697
0	13720	13494.896153212598	1.385028364137
0	13725	13499.765337596549	1.880085426942
0	13730	13504.08979880733	1.445010612346
0	13744	13517.796024184269	3.133702773897
0	13755	13522.750776690584	7.053272996335
0	13777	13566.118554267723	1.322227681801
0	13780	13567.957531308073	4.888870074409
0	13790	13572.923772863711	1.257698954269
0	13795	13580.7284111432	1.297813744284
0	13802	13587.714333153921	1.999147417955
0	13805	13589.185918398048	3.193005381517
0	13820	13623.221373653948	2.394145000402
0	13830	13633.628170613531	1.65560290888
0	13837	13646.678727377843	1.235352709144
0	13840	13648.22175467227	2.075354718092
0	13845	13661.213516272992	1.885599341057
0	13850	13674.473981516279	1.27971577961
0	13860	13686.539336578013	1.201665000245
0	13865	13694.046603409818	1.828077416494
0	13870	13700.38769572738	1.241907201707
0	13875	13706.62887297555	1.65260049887
0	13880	13710.169773759716	1.257698864117
0	13885	13714.10789596992	1.363300921023
0	13895	13735.264830453515	1.558753269911
0	13915	13770.502273335596	1.490749781206
0	13920	13778.485748734515	1.724860323407
0	13927	13788.44975917529	1.697530848719
0	13937	13791.419900914316	1.650882138501
0	13940	13792.930047551204	2.746091399015
0	13950	13817.136402063902	5.79322150446
0	13960	13823.107363626961	4.270191894572
0	13965	13825.257272824842	1.451821747608
0	13972	13827.11837351868	1.534432081878
0	13975	13828.443558421229	2.709626353948
0	13984	13835.170932804649	1.605289872177
0	13987	13836.96840895195	2.280344633225
0	13990	13838.810767482077	3.905435266764
0	14000	13872.356473964165	1.734686817601
0	14005	13878.710091573191	1.671279229224
0	14017	13888.988055660693	5.675737058441
0	14020	13890.621304212442	2.536441512696
0	14025	13892.867192229619	1.401684770919
0	14030	13921.360916526001	1.846405845322
0	14035	13926.828398549763	1.332538137957
0	14040	13939.473861767349	1.582051147707
0	14045	13943.130939737742	1.347940684669
0	14055	13949.426751766933	4.127219976923
0	14065	13954.581493219688	2.337832853681
0	14075	13979.526474841759	3.35416997642
0	14085	14001.71366912744	3.952306922445
0	14090	14004.293342762496	1.815552568249
0	14106	14015.736423090549	3.251207334195
0	14111	14017.535016245657	4.952935339147
0	14114	14019.168935492152	7.265756390244
0	14119	14020.563261332066	4.809904104808
0	14126	14022.108541626559	2.341027128216
0	14129	14023.61989247285	2.459450284603
0	14132	14024.971054613294	2.908136516298
0	14147	14039.551670083006	3.026869287192
0	14150	14041.157823131581	5.09808868356
0	14165	14049.376183894985	1.88101394698
0	14170	14057.067589207165	1.586013466306
0	14182	14061.554640980247	3.826421631863
0	14185	14063.535349890213	2.40250026672
0	14190	14073.114234303123	1.640496052802
0	14200	14082.623256274247	1.27987432275
0	14207	14093.011333574352	17.678602896185
0	14219	14096.317986306546	2.667834079036
0	14230	14100.440094454026	4.907070033592
0	14235	14112.244560734171	1.253548331372
0	14240	14114.06723092213	1.253221599571
0	14245	14118.545381702035	1.268686357699
0	14250	14121.396124725223	1.317285155132
0	14260	14140.354047529629	1.954813939333
0	14272	14151.13625020862	1.861203698628
0	14287	14156.563754787784	3.562591596485
0	14290	14157.910151811246	1.43373974222
0	14295	14165.727757418395	1.755696243607
0	14300	14173.827570242226	1.61857985612
0	14310	14184.042187730728	1.417023302242
0	14322	14192.625539279402	1.760668179765
0	14336	14196.15949507472	3.533050199243
0	14339	14197.712938383453	2.95447200591
0	14344	14198.95865584039	8.075046573945
0	14360	14216.681940441198	1.324483318813
0	14380	14231.430928006639	1.655005485192
0	14385	14237.082030164408	1.609679344483
0	14390	14242.582578960996	1.355371510424
0	14397	14245.712729809283	1.541423029266
0	14415	14264.926007977664	11.119953960723
0	14420	14279.956677083877	1.349233759381
0	14425	14284.339019368457	1.775362208858
0	14435	14292.482927209203	6.087205243485
0	14445	14297.366494555929	4.576614418063
0	14452	14313.50805294374	1.784825445712
0	14455	14314.846352434438	1.43952169848
0	14467	14324.785502171506	4.418146419216
0	14490	14353.835871348205	5.136459175125
0	14500	14365.202751855989	1.408358155377
0	14505	14372.164910303477	1.988214042038
0	14520	14407.882499134822	1.861388077214
0	14532	14416.68694874586	1.819463474885
0	14540	14423.125251264978	1.498844301142
0	14565	14440.148111274355	6.818998619245
0	14570	14451.888924916094	1.425231480598
0	14575	14463.858169596921	1.931433405168
0	14585	14472.794233764543	1.504462588951
0	14590	14478.233579390598	1.563814410008
0	14597	14479.682548860287	1.421392250806
0	14602	14481.093532600453	2.14025479076
0	14605	14482.752394295497	1.940766496469
0	14610	14501.164919841608	1.770543485321
0	14620	14514.230993507099	1.437293766395
0	14629	14516.644169825255	1.456554438733
0	14632	14518.285037470362	7.076293495754
0	14637	14520.196484403065	3.768282309788
0	14650	14542.584929177945	1.867482112534
0	14660	14554.463238931682	1.349524294585
0	14667	14560.975564960305	1.755608460121
0	14675	14564.888615599448	4.616496825807
0	14685	14570.945791025658	3.155985935335
0	14719	14602.407760072635	5.045326033607
0	14722	14603.741466130824	2.952165558977
0	14725	14605.448974073068	7.112861844697
0	14730	14610.278111707554	1.735141398199
0	14735	14613.498046399426	1.506383885443
0	14740	14626.805619599148	1.262070661411
0	14754	14640.95980439869	5.200371588951
0	14757	14642.721749139887	3.412359915849
0	14765	14646.086851133943	5.445980344196
0	14770	14648.421357068127	1.673278674297
0	14782	14659.827728900906	2.65013915104
0	14785	14661.564963059347	5.151864634827
0	14790	14668.013424210816	1.991638793238
0	14795	14673.647046465672	1.576165301539
0	14800	14677.090637665717	1.599521067552
0	14810	14692.296621094076	4.876866288403
0	14815	14725.452808635209	1.437224578485
0	14825	14731.272189823296	4.166483321327
0	14830	14733.792388499292	1.397853327915
0	14835	14747.422422912762	1.4731167797
0	14840	14753.4643203919	1.487705443241
0	14861	14766.27568975951	3.535948893219
0	14868	14767.567866392838	6.209772161021
0	14876	14770.384834944116	4.719771904938
0	14881	14772.050467165405	9.570120673239
0	14891	14775.376041705007	9.874103271094
0	14894	14777.217038475195	2.32501156247
0	14897	14778.999995740349	11.723382582414
0	14905	14794.371261938853	1.737701055594
0	14910	14796.874685036769	1.931636384502
0	14920	14829.512679850017	1.923373307846
0	14949	14841.773594784734	7.017365417343
0	14955	14844.429193209109	9.106433740647
0	14960	14846.877177857711	6.317083327678
0	14970	14859.708015294282	1.291260776669
0	14975	14869.33318443584	1.949738084339
0	14980	14873.379370573587	1.615919145942
0	14990	14889.604650998303	1.812604548037
0	14995	14893.81855862152	1.477791140042
0	15000	14903.836376577816	1.958519758098
0	15005	14910.64253367262	1.470841797628
0	15010	14924.448492474813	1.282991756126
0	15020	14947.912789982312	1.93577309642
0	15027	14954.084206017602	1.83222459387
0	15030	14955.973341090727	2.216669533267
0	15040	14965.049141298867	6.471925546941
0	15045	14969.956558050533	1.53102604337
0	15055	14974.070683065818	3.902236900405
0	15080	14995.580657024187	8.462839507497
0	15085	14998.592782877261	1.81887346413
0	15090	15001.721185987634	1.353914203122
0	15095	15011.625960703436	1.950626287609
0	15100	15031.80104231154	1.857624947093
0	15110	15040.866674183708	1.206018813886
0	15115	15049.733686920145	1.689008310437
0	15132	15084.322465753458	1.642110970244
0	15137	15085.571683880776	2.23045460214
0	15140	15087.314240827128	2.686034670258
0	15145	15093.379904208297	1.37181071043
0	15152	15096.852692548925	1.213583893888
0	15157	15098.473182304012	2.520852684749
0	15182	15122.089512150285	1.935437730514
0	15190	15124.88335050076	2.142929214699
0	15197	15128.419774601952	1.996625778452
0	15200	15130.412629634672	9.177709706045
0	15205	15148.695960964387	1.201823472977
0	15210	15167.132607722686	1.274973436259
0	15215	15173.347915506541	1.572094010375
0	15222	15184.996833591956	1.280493109673
0	15225	15186.206093314524	2.237062746619
0	15230	15201.9134299669	1.800948068313
0	15242	15207.544304320831	2.50914084909
0	15250	15211.161157136361	1.855711835809
0	15255	15213.136225643279	1.534798970446
0	15265	15226.822639219898	5.094095462502
0	15275	15234.787229609628	3.42639172059
0	15280	15237.176202027439	1.943523095734
0	15285	15244.785217686765	1.256982739829
0	15309	15276.365039756812	3.051029101507
0	15312	15277.902253272116	4.801134911924
0	15317	15279.485360041737	3.950895566617
0	15322	15281.263108121149	3.198337033544
0	15325	15283.020921530679	3.189356418647
0	15342	15313.08325118355	1.498920648731
0	15345	15314.8730334508	2.863462979394
0	15362	15332.705838881509	1.823167741857
0	15365	15334.591486954765	2.166004618516
0	15380	15355.558866839219	1.375720382482
0	15385	15364.685101969156	1.867144580185
0	15390	15366.923774977659	1.706699978188
0	15397	15368.724743838386	1.35787603315
0	15400	15370.042499881574	2.522518259705
0	15412	15373.593855251571	2.326090007301
0	15415	15375.356225251792	1.794337218077
0	15420	15380.731077120373	10.315531199146
0	15425	15382.599990889659	1.436984608136
0	15440	15393.657600376644	2.303782987133
0	15452	15405.212360109883	4.377314445977
0	15467	15410.269950984726	5.225351229784
0	15482	15424.373737439159	2.434466513528
0	15487	15426.341261677462	3.611707313195
0	15492	15427.998644381966	3.063967066629
0	15495	15429.464732267353	1.687506553817
0	15500	15431.638986702812	1.470955376141
0	15512	15438.578023318239	1.243856591359
0	15515	15439.978869242259	1.606693126397
0	15520	15450.148943404026	1.623523471318
0	15525	15451.868264901791	1.542173588462
0	15530	15459.450705356753	1.433442595415
0	15535	15466.537164977803	1.260934191011
0	15547	15474.294072952393	1.560217854753
0	15550	15476.148735352505	5.16612293768
0	15555	15484.058006465398	1.747034803405
0	15575	15493.164309130305	8.009704586219
0	15580	15501.055298575635	1.973823792487
0	15585	15512.070667418451	1.299777752347
0	15590	15516.805264559195	1.572505253926
0	15605	15533.675289254561	2.466129877849
0	15612	15538.374663627246	1.739189229347
0	15615	15539.882370905118	1.73310195307
0	15622	15545.948541598174	1.631737255305
0	15625	15547.530764139409	2.536961698136
0	15630	15552.441834575753	1.600697328895
0	15640	15565.02940255983	1.26399613861
0	15645	15581.839864542283	1.283087996021
0	15650	15584.516170919464	1.954782901518
0	15655	15589.129275280563	1.258183706179
0	15665	15608.131112684504	1.486138007032
0	15670	15610.952122948089	1.955760855041
0	15677	15620.503983425166	1.851484938711
0	15680	15622.404963091578	2.596277447401
0	15692	15627.13684873526	1.770639918745
0	15695	15629.101257445859	6.609272027821
0	15700	15632.677701974841	1.22152106259
0	15710	15643.140259942954	3.809227269324
0	15720	15649.253122086467	4.177424483465
0	15725	15653.646367989484	1.864459864795
0	15730	15672.165291428552	1.345970884152
0	15745	15694.451792663711	8.43834726969
0	15750	15701.139787367399	1.797668336332
0	15755	15707.501746051827	1.473314912617
0	15760	15719.340755112032	1.862323773839
0	15765	15726.131756001192	1.860832766816
0	15770	15732.410802332616	1.863763937168
0	15775	15735.596829252808	1.662530511245
0	15780	15745.012572551005	1.666191539541
0	15785	15750.706434907995	1.413393573277
0	15794	15753.393501039308	1.391609146073
0	15802	15757.187348452111	4.029087481156
0	15807	15758.586550760356	6.330661427756
0	15817	15761.608005601428	3.705598890123
0	15820	15763.241761739999	2.205477341507
0	15825	15776.497610512665	1.965602989867
0	15832	15789.139263635015	1.507131126337
0	15835	15790.784322759582	1.947494540678
0	15840	15805.368486915592	1.273715784028
0	15852	15813.185682999101	2.72479513329
0	15875	15825.464549328086	13.19887259512
0	15896	15846.334063450944	5.64533258155
0	15899	15847.547231736172	2.720262573654
0	15902	15848.998417824272	7.774879270298
0	15924	15858.171833384305	3.43071344335
0	15927	15859.992796809308	4.643082509746
0	15932	15861.661442228488	7.536865977465
0	15950	15868.554837708692	5.663521506822
0	15955	15873.895343343812	1.784460555203
0	15962	15883.632479655137	1.506095871516
0	15965	15885.023194749793	2.590426910644
0	15970	15899.817741826092	1.344436739199
0	15975	15905.369635971765	1.507171885855
0	15980	15912.787600192417	1.798645931296
0	15985	15921.047240652021	1.58623441346
0	15992	15924.966638526454	1.582561215386
0	15995	15926.479088817112	2.834870220564
0	16000	15941.110690176889	1.630761115812
0	16005	15954.317494323972	1.615062761679
0	16010	15958.104397646111	1.322813046537
0	16035	15974.675069455558	5.393539272876
0	16050	15984.024415461727	4.643676106217
0	16067	16007.588623606133	1.673400771804
0	16070	16009.416709344367	2.091358573161
0	16075	16011.837807146369	1.68002885785
0	16087	16020.958121519574	4.166748639965
0	16095	16041.396862251449	1.571382331289
0	16105	16065.43475343026	1.882479880191
0	16110	16082.734874821246	1.282768430561
0	16115	16087.956985059846	1.850473567657
0	16120	16117.590595074536	1.412667484209
0	16125	16119.580231772959	1.316163429059
0	16130	16122.350464864664	1.335668069683
0	16151	16136.156423670516	1.890500509508
0	16157	16139.35630162628	4.404375698818
0	16167	16142.616522318028	8.142560688275
0	16170	16143.993749009162	3.258434149493
0	16182	16156.042544176123	1.967674654722
0	16192	16159.360092217191	1.63139740061
0	16195	16161.075947147137	2.025317183448
0	16202	16164.438045648168	1.582895227894
0	16210	16172.801563744459	1.487703357637
0	16217	16175.362212810095	1.328631150164
0	16237	16182.018096267841	7.877893984554
0	16240	16183.920932479239	4.689774597995
0	16247	16189.144251154327	1.363319689035
0	16257	16194.581358770429	6.19488663563
0	16260	16196.550991911589	2.7088341144
0	16265	16218.791213785581	1.249843395129
0	16277	16222.855329051983	1.934071081877
0	16282	16224.709725740921	5.752920294465
0	16285	16226.180633202192	3.25199449447
0	16290	16250.423120057101	1.824791733362
0	16295	16264.790469791905	1.295727660134
0	16302	16282.177597300607	1.684065802954
0	16305	16283.989145729589	2.817565920209
0	16310	16300.857014516472	1.394618320093
0	16317	16315.136452964957	1.777403279208
0	16327	16321.532123574327	1.900180636533
0	16335	16326.812156672666	6.075675505003
0	16340	16333.987339623849	1.409658532031
0	16347	16336.473086124688	1.844425908104
0	16350	16337.91205964557	1.959037116224
0	16355	16345.105311000417	1.395284412615
0	16374	16356.512406149377	1.655655146576
0	16379	16358.49494461814	6.11587478158
0	16390	16371.978052434953	1.817832815647
0	16400	16395.450843283843	1.605053831264
0	16412	16412.618979058547	2.675091483492
0	16417	16414.380090309253	3.880723398132
0	16420	16415.914117656408	1.888188467133
0	16425	16417.815506113982	1.505251773633
0	16435	16421.836392567251	2.033619880229
0	16440	16424.052833241203	1.259575852565
0	16447	16427.197493104047	1.565260891058
0	16450	16428.590241296372	2.460385627356
0	16457	16433.40417753139	1.84646461308
0	16460	16434.937423203676	2.022456602903
0	16470	16442.083778694885	3.719778328673
0	16477	16453.966548200032	1.249822336994
0	16480	16455.621354400447	1.827421079543
0	16485	16458.511251364833	1.344922958687
0	16490	16460.213397988476	1.475734664127
0	16505	16475.265928693796	3.92352932344
0	16520	16483.703451762261	2.730685862277
0	16525	16485.674971780291	1.490226344764
0	16530	16490.962869434875	1.261789629795
0	16541	16496.752417461411	1.514358286746
0	16546	16498.220106897526	2.410636995452
0	16549	16499.989287014142	3.922140552816
0	16560	16505.137148222723	8.253299984549
0	16570	16518.064741834797	1.562557630241
0	16575	16520.336509525426	1.550603791326
0	16582	16526.539917191861	1.312465709075
0	16590	16530.891232911082	5.404904318713
0	16595	16534.737101402709	1.384042972326
0	16607	16556.906999696078	1.391346665099
0	16610	16558.767176871779	2.096340787083
0	16615	16564.514106461912	1.655688613281
0	16622	16568.173397802546	1.285017240606
0	16625	16569.449989781513	1.864937159939
0	16630	16575.482925332845	1.498895155638
0	16647	16585.101418219914	1.264257090725
0	16650	16586.810840047372	2.244645918016
0	16655	16589.46136365184	1.543049835972
0	16660	16603.082477378028	1.636816894449
0	16667	16606.562134737191	1.91858519502
0	16670	16607.915568640125	1.652286431798
0	16675	16610.238232003052	1.708455631696
0	16687	16619.582368837095	3.150280863833
0	16692	16621.132153844631	2.357245408596
0	16695	16622.791488154216	2.710766914068
0	16702	16635.031199919983	1.854060384259
0	16710	16641.652346699595	8.179888622844
0	16720	16658.908816379364	1.720567815751
0	16725	16662.406322484518	1.627582762018
0	16730	16664.769379909232	1.904949234612
0	16735	16690.709085543902	1.210692648403
0	16759	16697.45764764747	3.104660976268
0	16762	16699.072031521372	7.251824129045
0	16765	16700.669376552611	9.104927070997
0	16770	16724.263949391539	1.713191775419
0	16780	16742.525048018058	1.24084407445
0	16785	16750.5589230865	1.326983930171
0	16790	16753.269521177356	1.831463089585
0	16797	16755.446850764418	1.255844586529
0	16805	16760.864043673156	5.514921061469
0	16810	16763.382866696123	1.811514643766
0	16819	16771.610664124364	1.900126481056
0	16822	16773.543629665064	3.620623454548
0	16825	16775.239302997055	4.440116505952
0	16830	16778.011252925099	1.525674470514
0	16840	16782.851255439356	3.097540468336
0	16845	16829.540624671607	1.528945766203
0	16854	16833.407700658132	1.443838630244
0	16857	16834.771253812042	2.753516990572
0	16860	16836.000812643495	3.260127058791
0	16882	16846.595211721877	8.211504759895
0	16887	16848.455953948493	2.029267059772
0	16892	16850.005157435606	3.198899686812
0	16899	16851.440055755446	2.452272441326
0	16902	16852.969347471478	2.769426979638
0	16905	16854.535536047737	3.331040243668
0	16910	16862.771653568885	1.849589102529
0	16935	16881.452575947437	4.451609189675
0	16955	16910.432117251527	1.620194554143
0	16960	16914.018688770904	1.694470768794
0	16965	16928.554209642262	1.661355975643
0	16972	16932.746954736253	1.697947750613
0	16979	16934.678688243916	3.445686872897
0	16982	16936.066839301353	2.000879578703
0	17002	16978.420741059189	3.250485421382
0	17019	16983.092695870554	2.213444265113
0	17022	16984.577809208563	4.742326366034
0	17032	16987.758619196645	2.108041349347
0	17035	16989.679637726515	2.397181556735
0	17040	17015.623226904713	1.802895136364
0	17055	17023.385606816441	4.9032530444
0	17060	17033.389892934493	1.654445350356
0	17065	17041.888566836373	1.991272483952
0	17082	17058.521790862046	1.759753943421
0	17097	17093.052017431516	1.434850909002
0	17110	17111.658502649078	2.747499589528
0	17132	17118.183929819037	5.206623190247
0	17135	17119.714829069544	5.555642957383
0	17140	17121.71362301973	1.338082471304
0	17150	17128.51553814343	4.103727864294
0	17165	17134.818820089009	4.879053662531
0	17172	17143.795392282596	1.73726220578
0	17177	17145.738716756655	2.838043590883
0	17180	17147.647278877823	3.428045880815
0	17185	17150.164145325642	1.710103608295
0	17190	17153.01371098469	1.708850361593
0	17200	17173.543824806692	1.532100786269
0	17205	17211.147114622066	1.387267757021
0	17210	17215.114301818758	1.235028519668
0	17215	17218.402161441062	1.696392835304
0	17225	17240.909004998846	1.706979803368
0	17235	17267.996033305379	1.283988045342
0	17240	17273.887089117856	1.287518220395
0	17245	17279.77496222682	1.764471858554
0	17255	17290.114656247137	1.740349238366
0	17265	17302.804016588289	1.420204140432
0	17270	17308.998464618103	1.466072443314
0	17282	17316.923370439663	1.5750435872
0	17285	17318.478101225674	5.885860621189
0	17295	17335.181380101351	1.293917457573
0	17300	17350.997280584678	1.516463364288
0	17305	17354.841182563855	1.277992999554
0	17312	17371.700425836036	1.267905334756
0	17315	17373.010498629848	1.884109677244
0	17320	17379.849945823913	1.355266191438
0	17325	17389.837657557101	1.326786489226
0	17332	17398.314334862164	1.997215454653
0	17337	17399.755977737388	3.367470286106
0	17340	17401.584020252942	2.902471539986
0	17345	17406.543395592642	1.752273155749
0	17352	17416.225367412019	1.654205280729
0	17355	17417.75883611967	2.219502132898
0	17360	17435.949401631951	1.346927547455
0	17372	17444.756146867426	2.835669746164
0	17375	17446.318450288514	4.956540715323
0	17380	17454.15785465328	1.829239892028
0	17392	17457.291538407953	1.246109486744
0	17395	17458.661819910185	1.573089327512
0	17410	17466.905118991351	1.224899301492
0	17415	17480.403499070744	1.255089668185
0	17420	17493.023349482684	1.900806408376
0	17425	17496.459903008776	1.726108770445
0	17434	17513.499441014977	1.625422517397
0	17437	17515.275550075622	2.146205797306
0	17445	17519.263780293123	1.370168950409
0	17459	17528.530801485777	3.210877334318
0	17467	17532.028287942261	3.585810494499
0	17479	17535.31412210457	10.192880014889
0	17482	17537.191093632877	5.95466613372
0	17485	17539.105321711041	4.425466711205
0	17492	17541.349721112689	1.688685626909
0	17495	17542.937030422902	3.246092060955
0	17502	17544.974725000575	1.300740961358
0	17510	17549.219151921672	4.302334636305
0	17515	17568.519420508673	1.48570981957
0	17520	17621.489555833534	1.483840435371
0	17530	17628.203824190935	4.725917588664
0	17542	17632.702527204827	3.524633444766
0	17545	17634.599458903373	2.425747528001
0	17550	17644.988941127663	1.32205224596
0	17557	17663.721987145104	1.801650224999
0	17562	17665.506052288682	2.091707322082
0	17570	17673.631726603196	1.234221105091
0	17577	17675.668128838467	1.996247521415
0	17585	17697.430140414398	1.846930041537
0	17597	17708.03429626356	1.383458875865
0	17600	17709.628690612494	1.783279684249
0	17610	17715.69375279281	4.979912519989
0	17615	17748.765130683583	1.337573220395
0	17625	17753.155762962513	4.306023782441
0	17632	17755.669200567832	1.360914396867
0	17635	17756.97289930333	2.163483549723
0	17642	17759.591837465418	1.995365351066
0	17652	17764.617133631611	1.529235826619
0	17662	17768.045063015097	3.826446005554
0	17665	17769.343498420739	1.819535293291
0	17670	17776.258246512616	1.424716327339
0	17675	17792.2410443072	1.5574726386
0	17692	17801.637323925135	1.740298433383
0	17700	17806.707250415811	1.401240470633
0	17710	17816.750545980355	3.509322125698
0	17717	17830.215403164247	1.930627830885
0	17720	17831.867301835189	1.892817595449
0	17727	17834.014579190514	1.266213961504
0	17730	17835.598117507263	1.698540051954
0	17735	17852.66494883835	1.742847099528
0	17742	17862.584487097751	1.247537422739
0	17750	17866.016884108516	3.462094731346
0	17760	17887.960933160952	1.794718572125
0	17770	17911.457485561155	1.62475709375
0	17775	17928.17846655881	1.633819509484
0	17782	17932.767937872579	1.964670993015
0	17790	17936.736861817735	1.593891492486
0	17795	17942.966551268042	1.675163216144
0	17809	17953.314048882694	2.901532883075
0	17819	17956.874524378897	5.335401340909
0	17825	17959.601780906999	8.898209995135
0	17830	17961.618703412762	7.241652702232
0	17840	17967.68013695096	4.703190668147
0	17852	17984.657339394026	3.982317487468
0	17855	17986.073161367447	2.693001194716
0	17870	17993.675352679272	2.724215081397
0	17875	18007.291969398405	1.493505203724
0	17887	18017.471484907833	1.531704610772
0	17907	18026.600352000565	1.266023339704
0	17912	18028.418403430217	1.828359479324
0	17934	18035.032626990908	5.519806754897
0	17937	18036.613913729535	1.87183310836
0	17957	18051.604595044423	1.893887432851
0	17962	18053.421493889932	2.358448371063
0	17975	18072.382583150163	1.516715658642
0	17985	18086.362367358578	5.090415886819
0	17990	18094.485218068927	1.71182633955
0	18000	18097.668568354883	1.836500288077
0	18007	18120.401777562782	1.202079801634
0	18015	18125.885979020557	5.941564877549
0	18025	18130.076274142631	3.160658915346
0	18030	18134.301152774078	1.406567410007
0	18035	18138.291720565229	1.369230853952
0	18042	18147.421997147319	1.73961429242
0	18060	18160.271776219334	1.24330527056
0	18100	18186.048946416521	2.612389257922
0	18105	18189.038340965788	13.897312158625
0	18110	18197.385729021514	1.359562781639
0	18120	18206.792266078246	5.01018950075
0	18125	18210.207356620151	1.843444293365
0	18130	18240.369200621126	1.725297801569
0	18135	18244.599382881893	1.493090083823
0	18145	18252.077308378395	1.399025993794
0	18150	18256.720778394419	1.488087456301
0	18155	18260.687192635336	1.216597179137
0	18164	18273.141821063888	1.596266641282
0	18167	18275.107511146945	3.307113980423
0	18170	18276.654126415794	4.616393520174
0	18185	18316.492572208087	4.770622854866
0	18195	18321.482900255761	1.927264429443
0	18202	18325.493405380981	1.590656012855
0	18205	18327.149936078811	2.572857703249
0	18210	18338.986508747612	1.494669814222
0	18230	18347.158081843971	5.792875014881
0	18240	18359.083600472818	3.147559304805
0	18260	18393.091281496833	1.233290226199
0	18265	18403.116999777805	1.901403185911
0	18275	18412.656998243199	1.446174560487
0	18280	18419.508341247577	1.733507889137
0	18290	18426.069313262068	1.941992049359
0	18295	18428.912567641769	1.614415491931
0	18305	18438.199080151817	2.961151635741
0	18314	18446.920876359547	1.293884433247
0	18317	18448.904815595391	2.311079882342
0	18327	18452.119933435301	3.211776091441
0	18332	18453.833116958829	2.172068652676
0	18335	18455.153864317926	1.805104170527
0	18340	18465.477301095328	1.678816363961
0	18350	18472.345649505181	3.343615996603
0	18355	18475.205873371656	6.2546120074
0	18369	18483.335184061144	4.616721475401
0	18372	18485.177224505868	3.310181640399
0	18375	18486.637370963011	3.444763687845
0	18380	18488.7195404808	1.499119633622
0	18390	18505.475482980111	1.806265416369
0	18395	18507.241414999917	1.371578413248
0	18402	18510.938006509321	1.894931163639
0	18410	18520.753666818561	1.680039237253
0	18415	18522.611700101658	1.721908375621
0	18427	18529.186007687443	2.389661777546
0	18430	18530.563246832782	4.782047080063
0	18437	18532.790905771966	1.755691993423
0	18447	18536.018160852423	4.934258329644
0	18455	18547.180508263517	1.537928508222
0	18460	18551.498694302557	1.322903271578
0	18472	18555.170322807563	2.572587004708
0	18475	18556.422615083178	3.195849150154
0	18482	18568.451886671971	1.974261495844
0	18485	18570.36984278262	2.039187740658
0	18490	18576.165770167047	1.634141836688
0	18495	18578.40253284369	1.851006405242
0	18500	18582.184351448999	1.202724002302
0	18505	18589.688606934343	1.3438519096
0	18510	18599.474907741273	1.354798384197
0	18515	18604.250576718945	1.746088912152
0	18520	18611.000791798296	1.775793641992
0	18525	18618.90077502352	1.230698124506
0	18530	18626.279900221305	1.795477931015
0	18535	18635.106894617654	1.549860749766
0	18550	18640.183254022073	4.935477545672
0	18555	18648.522083141988	1.743957738951
0	18560	18666.963061746705	1.994039966352
0	18567	18670.674713764766	1.297926959954
0	18572	18672.661855374703	2.848224183253
0	18580	18678.533881574709	1.585877726413
0	18592	18683.354070412564	11.745362347082
0	18600	18686.7785513326	1.818264344335
0	18607	18702.807637640799	1.813773094304
0	18610	18704.682731721143	3.337694094691
0	18615	18716.706053682225	1.61619864516
0	18627	18724.232189025718	1.731824173761
0	18630	18725.706165940489	4.349705667794
0	18642	18736.935175288516	1.977786107734
0	18645	18738.764732760238	7.311588169487
0	18670	18761.240841195824	8.592116943927
0	18675	18779.69687724851	1.473920210451
0	18695	18791.439205796859	7.048862544028
0	18702	18795.240525588677	1.966122273542
0	18712	18798.55578818182	3.038428249957
0	18715	18799.979356680908	5.289434697623
0	18720	18801.765362831528	1.737740016729
0	18725	18811.868697039891	1.368517594412
0	18732	18819.935174243269	1.75546280425
0	18735	18821.305126568606	1.617816429859
0	18742	18825.233955608068	1.835188368894
0	18745	18826.850260410404	1.879334623749
0	18750	18831.496584543228	1.431073006988
0	18755	18834.205877946383	1.759524389729
0	18760	18858.688742540935	1.598984882236
0	18765	18867.119762995367	1.78888566792
0	18770	18881.057612862035	1.516106072254
0	18780	18894.959933191916	3.473994317001
0	18789	18899.312130653817	1.591976502351
0	18800	18905.908722800223	7.627732487205
0	18805	18909.343823068352	18.353831557128
0	18810	18911.2743976446	1.227548169345
0	18815	18917.579281983732	1.203156886064
0	18820	18932.339503605554	1.956521649286
0	18837	18952.862064179198	1.23292137254
0	18842	18954.705575931796	2.428128456891
0	18845	18956.297561090046	3.048740003957
0	18850	18967.820796656552	1.257744846493
0	18855	18975.477449646079	1.498280551843
0	18860	18985.788850727657	1.616513423063
0	18865	18987.847216457348	1.465957730636
0	18875	18992.03398265495	2.232333670863
0	18880	19004.811051560201	1.627768940665
0	18885	19006.984493760507	1.364725608006
0	18890	19009.303614619727	1.739507490769
0	18900	19021.285574811658	1.618226385605
0	18905	19027.619885313419	1.910974165052
0	18912	19034.744785476084	1.484408272989
0	18915	19036.671299660186	2.679743041412
0	18927	19041.912188706416	1.513644452393
0	18930	19043.415309241656	6.049601598015
0	18937	19047.884523957965	1.579229400121
0	18947	19058.545444798245	1.305291803181
0	18950	19060.460475936866	2.42062076407
0	18955	19068.587745694796	1.707789880224
0	18960	19071.800792034712	1.824384947866
0	18986	19083.154647023333	7.567019569843
0	18989	19084.549616636438	3.584272442103
0	18992	19086.327574701709	5.037034504051
0	18995	19087.918911162121	6.57534284546
0	19000	19091.505925477857	1.736022090912
0	19010	19114.38481460679	1.506461715326
0	19022	19121.680006454874	1.649816537494
0	19047	19134.285909126536	2.18944613624
0	19055	19139.0737268361	8.282009619026
0	19060	19155.395067134126	1.959880539775
0	19065	19160.171854314742	1.424388387054
0	19072	19164.325149805672	1.554972210154
0	19075	19166.182202439211	2.51020943341
0	19080	19172.172676197832	1.403976735473
0	19085	19179.299655866475	1.498969140463
0	19092	19187.106494221118	1.406849069893
0	19113	19197.809489899293	11.969998489898
0	19116	19199.327635843099	3.448962525916
0	19119	19200.865123116762	4.841274553934
0	19124	19202.554607964658	7.691080422886
0	19127	19204.468584364445	3.545978083996
0	19157	19221.148929993176	2.742375066534
0	19160	19222.571792310962	5.097413157761
0	19170	19233.075450868181	1.329862932675
0	19179	19239.708257257932	1.630912145227
0	19182	19241.076194329553	1.770229749117
0	19192	19243.734568404213	1.498573687457
0	19195	19245.033486208499	2.467134750051
0	19202	19254.807751194903	1.881396318041
0	19205	19256.559580415816	2.58439777174
0	19214	19261.163442575091	1.753531093709
0	19217	19262.52570807291	2.397640775947
0	19220	19264.340729692483	3.894022525491
0	19225	19272.805726866664	1.310178797506
0	19245	19305.065004222287	9.225420976648
0	19260	19313.481630632714	1.620689656958
0	19265	19320.803036804424	1.852678474784
0	19272	19335.021451419479	1.872413978353
0	19275	19336.409718990213	1.918619856817
0	19292	19345.774168468602	4.805395470932
0	19297	19347.175723423958	2.98003109119
0	19302	19348.604975775033	2.104756195312
0	19312	19352.777598474993	10.716369605955
0	19315	19354.175439773387	2.583779364871
0	19320	19356.609300359403	1.890661528707
0	19325	19366.320197481565	1.975351573154
0	19330	19376.311039687885	1.726954185218
0	19335	19384.886581854186	1.999276284873
0	19350	19399.651905951872	1.352846569195
0	19355	19402.299934375065	1.662151199579
0	19370	19411.188894925485	6.594492436877
0	19375	19417.925443409168	1.530555049889
0	19380	19424.322473085993	1.913967927545
0	19394	19436.149123245469	4.854786825852
0	19397	19437.594512561141	2.453569226395
0	19400	19439.199711944713	3.913680941511
0	19407	19453.220915583315	1.541488021053
0	19415	19457.032490115586	4.864406986972
0	19425	19467.052963936174	3.438125883025
0	19430	19468.49962686147	4.970722954087
0	19435	19471.182527851371	1.87067413833
0	19440	19493.191482764009	1.917396469973
0	19445	19501.099074233181	1.677844421007
0	19450	19512.864778368013	1.885934022442
0	19455	19519.710833302535	1.206565967016
0	19460	19525.486511389433	1.972498784214
0	19465	19529.185062771245	1.303260429762
0	19477	19542.810076292483	1.963818396628
0	19480	19544.488774511097	2.662871157354
0	19487	19548.161841691239	1.38783751037
0	19492	19549.378528385936	2.071665998412
0	19497	19550.867449022784	2.254882027922
0	19507	19555.372304295937	5.585527342717
0	19520	19560.938082556303	2.301122737738
0	19542	19579.67819442485	2.876286914029
0	19545	19581.27652203009	9.738023106417
0	19562	19590.040232918073	2.962642542108
0	19565	19591.701363684457	8.381056002658
0	19575	19604.370068087304	3.553560092005
0	19580	19607.848830083544	1.763639007881
0	19590	19615.672962725403	1.501669228636
0	19595	19618.980921199077	1.430349328555
0	19600	19642.127512112508	1.269712955877
0	19607	19651.21971256788	1.703865491785
0	19610	19652.656942155576	2.28857945165
0	19615	19654.466109576996	1.699657587707
0	19620	19664.818744548498	1.700804499909
0	19625	19670.352311274643	1.60304451324
0	19635	19691.166850162866	4.723555028407
0	19642	19693.423462748385	1.812835627608
0	19652	19726.613915243601	1.962584457174
0	19662	19738.30324986891	1.559564921819
0	19672	19741.893780894365	2.696743711131
0	19690	19763.559685444954	3.041929460332
0	19702	19770.624246050227	4.664309097351
0	19710	19773.436092959154	1.691156018641
0	19722	19776.97514315259	2.993361209575
0	19735	19785.809096167838	1.807612648234
0	19754	19799.833717609973	3.398324675153
0	19759	19801.719407578589	3.803697812865
0	19767	19805.090255269626	5.225693253057
0	19770	19806.493944256412	13.937195062157
0	19782	19816.307404271927	1.939156189561
0	19785	19817.780607047905	5.370183586833
0	19790	19822.675172546519	1.531217519753
0	19807	19830.354610724405	3.347939152709
0	19814	19831.717484682642	5.836917611752
0	19827	19843.745770334994	1.802994185314
0	19832	19845.613324521837	3.198021667848
0	19837	19847.167499215697	3.34003122658
0	19842	19848.77693150079	2.796112861007
0	19850	19852.195419990046	1.617973834462
0	19861	19854.513854042816	1.86462689545
0	19867	19857.941337616186	5.132549306025
0	19877	19861.320402297195	13.433857867326
0	19880	19862.591222694706	2.365067493001
0	19907	19891.491690365224	10.916177217352
0	19915	19900.590495383543	1.724893911742
0	19920	19910.791033017529	1.369998259097
0	19925	19913.356000527911	1.319003395922
0	19930	19916.904037689427	1.791285538673
0	19935	19924.574872185515	1.686078004353
0	19950	19936.228952431086	1.874859066582
0	19955	19952.799520416939	1.763892855495
0	19960	19967.652595715876	1.889382194541
0	19965	19972.143631245665	1.294424017519
0	19987	19988.01289683026	3.715094377057
0	19990	19989.228374715938	2.392564015066
0	20012	20013.610628005881	3.355421858927
0	20020	20020.751906736668	10.609475960851
0	20025	20031.512242629268	1.588961300254
0	20032	20036.988438244072	1.790887457691
0	20040	20041.242349001102	5.30808452112
0	20045	20048.774700698019	1.889933198504
0	20050	20052.436186594521	1.638425393775
0	20062	20075.265076043689	1.621229571104
0	20065	20076.501258153328	6.0841739942
0	20070	20079.694899610033	1.430439898744
0	20075	20086.123595391238	1.381851113774
0	20085	20098.147598972721	3.872229945262
0	20095	20102.238767090997	1.990264863577
0	20100	20106.030386567451	6.674931839445
0	20107	20108.184972161634	1.905794787407
0	20134	20125.242855006337	1.82350307256
0	20143	20127.014930287443	3.254605028698
0	20149	20130.119798561252	3.898668702108
0	20154	20131.839845674924	5.103135652358
0	20157	20133.177999404326	18.140201811416
0	20170	20139.605082474879	5.675501555547
0	20175	20146.931413263508	1.769405984692
0	20180	20148.907819548036	1.513701705821
0	20185	20159.673080750845	1.409303256124
0	20190	20164.418888542312	1.238427243195
0	20195	20184.276400787971	1.637195135094
0	20219	20199.501826205601	2.898838089364
0	20222	20201.348026512128	7.271364204586
0	20227	20203.118596460235	5.28273054064
0	20230	20205.029717317533	10.285771862795
0	20235	20209.400257410729	1.868885946833
0	20240	20213.052544928056	1.352904487215
0	20245	20218.136056153203	1.379053211026
0	20280	20247.515405516776	1.682324350439
0	20285	20251.44405388401	1.772972122394
0	20290	20256.600164264912	1.998335626721
0	20295	20260.145948229557	1.822637698054
0	20305	20285.325132845498	1.89959867429
0	20312	20293.838160072635	1.481207785383
0	20315	20295.709577910784	1.880745254803
0	20320	20307.99347646317	1.456286227703
0	20325	20313.487001852154	1.342691426538
0	20330	20319.629751493368	1.628483897075
0	20335	20325.689796427381	1.539091392793
0	20340	20339.90106386942	1.599775457196
0	20355	20346.42143158164	6.019764529742
0	20360	20355.689313326346	1.350623732246
0	20365	20362.578129619615	1.229115656763
0	20375	20371.450625054377	6.274454361591
0	20382	20377.055487687202	1.231943509914
0	20397	20382.495884496774	6.086900222829
0	20414	20387.664252503645	2.3534145435
0	20426	20391.251620354001	4.954927529324
0	20429	20392.462647910286	3.221321480865
0	20432	20393.883997170683	4.301018373348
0	20435	20395.231488855239	11.818154229121
0	20440	20396.96820526276	1.295914678276
0	20445	20402.346384793392	1.223053378053
0	20450	20410.141920891736	1.481084418483
0	20455	20424.082505322919	1.75856000632
0	20460	20434.325916103184	1.490067158639
0	20477	20444.278043291665	7.506409404607
0	20491	20447.600066058657	2.124571592351
0	20494	20448.867650582402	3.185071834179
0	20499	20450.579713901266	9.651533707977
0	20507	20453.539598790131	1.384573864474
0	20515	20456.916001969445	10.023510538315
0	20522	20459.10420068091	1.398663590848
0	20555	20493.200493083136	1.677407534979
0	20565	20501.562593312486	3.66638814434
0	20586	20528.632559191574	2.659461453236
0	20589	20529.963662698817	3.865240387244
0	20595	20533.311302272555	5.847612850362
0	20600	20535.033847608252	11.103638933667
0	20605	20553.521181015829	1.240127998032
0	20615	20557.601580042134	1.972220087607
0	20630	20563.895153734433	1.681618976407
0	20640	20568.379867061801	3.177600597354
0	20645	20580.590956502211	1.893000528589
0	20650	20587.240114408201	1.795129128173
0	20665	20632.04944210968	4.544818178632
0	20670	20639.836421149778	1.698935662396
0	20680	20655.094208717324	3.451353341374
0	20685	20658.876073536444	1.540730271302
0	20692	20674.810213609541	1.761491147801
0	20707	20690.340719395781	1.402081429772
0	20710	20691.846478696818	2.842559276901
0	20717	20696.122873533031	1.497070575133
0	20725	20701.01710009531	5.560447970204
0	20730	20708.460105479503	1.223892009631
0	20735	20715.405573637967	1.492792023718
0	20740	20721.561367567896	1.926365166716
0	20745	20725.838110714017	1.986022927053
0	20750	20733.29246515487	1.483446613885
0	20757	20739.725226477481	1.691052157059
0	20760	20741.26915522585	1.893095172455
0	20772	20753.83858961042	1.400103329867
0	20779	20755.348265748545	2.551552984883
0	20782	20757.224901301115	7.08752374344
0	20785	20758.604033705666	3.279836395995
0	20792	20777.241431092597	1.790421400592
0	20800	20782.51603683161	5.92053589967
0	20815	20793.913177718387	1.508686561324
0	20835	20798.545312416295	2.722817234843
0	20838	20800.10796477359	9.429141424148
0	20841	20802.061446787717	5.34703572602
0	20852	20806.698304345013	8.250275659763
0	20862	20809.991069264744	14.772652124161
0	20865	20811.796075718884	14.564968359841
0	20870	20821.253126851742	1.956662496552
0	20875	20823.908376963868	1.639232110418
0	20880	20826.201219962487	1.455747066811
0	20892	20829.804304051011	2.536704450355
0	20902	20832.685064039736	6.273062171601
0	20910	20845.498239935441	1.992204378173
0	20929	20859.884512245537	1.882549364492
0	20934	20861.137009309114	2.753824327112
0	20937	20862.801641389423	2.83656854665
0	20947	20866.110525360399	3.079167977976
0	20955	20873.265696457049	1.557203208841
0	20960	20880.877497390702	1.709580509923
0	20965	20894.869917306706	1.613035889715
0	20972	20916.115210531849	1.983754005097
0	20977	20917.791806786704	1.978890814004
0	20987	20921.465295722346	3.233984076798
0	20992	20923.446333917427	7.227391649462
0	20995	20925.157961747061	2.107794386362
0	21007	20935.696985908677	1.950944220461
0	21010	20937.297055112091	5.17803522044
0	21015	20944.833959105256	1.603274906799
0	21022	20950.864816683282	1.457416265085
0	21027	20952.82808321466	2.371875757165
0	21037	20956.981692347273	6.007627258061
0	21042	20958.22273645994	1.6563802208
0	21045	20959.773659383289	2.234319108704
0	21055	20968.62792385533	6.666215055618
0	21060	20970.560568776945	1.432112172246
0	21070	20982.221881075008	1.869880729727
0	21075	20987.186654652286	8.723089775199
0	21080	20992.295253662015	1.227315463871
0	21085	20997.457933928686	1.940365282446
0	21090	21006.506638107631	1.529401238635
0	21097	21012.49716174418	1.510740589164
0	21100	21013.985068230162	2.370496606216
0	21117	21039.110079874174	6.108077918983
0	21122	21040.371167506353	3.005387019128
0	21125	21041.764254901634	2.00482555113
0	21130	21052.270629433226	1.46652248241
0	21135	21060.389394921048	1.392610954307
0	21140	21063.62657666833	1.28239614591
0	21145	21072.504355693839	1.919344051741
0	21150	21091.138024730564	1.440160677582
0	21157	21095.718537787695	1.775990327075
0	21172	21101.05228749362	7.078412873163
0	21175	21103.000984784562	3.940162380602
0	21182	21106.45004929425	1.457304625958
0	21185	21108.013589571135	2.249773181019
0	21190	21113.682093429532	1.206780089438
0	21197	21117.935446715146	1.727337363735
0	21200	21119.289182890556	2.717702663542
0	21212	21126.139626021584	1.297570055537
0	21225	21131.466219743724	1.946156365238
0	21232	21134.479031570857	8.912895459393
0	21237	21136.454792220747	2.555077140821
0	21247	21142.295082827332	1.592215148546
0	21252	21144.206403209316	2.278750258552
0	21272	21159.841777831203	1.818571056612
0	21275	21161.518550586029	2.32699669143
0	21285	21174.683755177261	3.525727477166
0	21295	21194.802856957519	5.675697679616
0	21309	21203.928918560259	2.460145133803
0	21312	21205.918817232773	2.955879535433
0	21317	21207.889101540707	6.739610763453
0	21330	21215.163924328402	4.065950475911
0	21335	21222.819864957583	1.805248769186
0	21342	21226.030028956316	1.214437243156
0	21347	21227.517853459648	2.091068779428
0	21357	21230.979616079784	2.632848487535
0	21360	21232.37061272443	5.288005558605
0	21365	21235.287373376572	1.340952100977
0	21384	21258.491200610225	1.891814433224
0	21387	21260.450078218219	3.789464207277
0	21397	21266.853452304322	1.530319742486
0	21400	21268.648051342871	3.273265812063
0	21407	21275.317408768323	1.405919673108
0	21410	21276.543971655753	1.74405504588
0	21422	21285.529255812793	2.951622864066
0	21427	21286.908758123397	1.62325650386
0	21430	21288.161200898877	1.573346607056
0	21442	21319.773760278679	1.620284522511
0	21457	21324.838797481514	5.926906693262
0	21467	21337.178232169176	1.205501747318
0	21470	21338.754359698693	2.214695370599
0	21480	21348.962447429359	1.560397945344
0	21487	21367.283145828668	1.705675433762
0	21500	21374.436655579811	8.502304956394
0	21505	21382.307680737157	1.629462080635
0	21510	21385.38727484616	1.370094529167
0	21515	21396.721799664957	1.931750064343
0	21520	21407.678071702193	1.668838960864
0	21525	21411.232793115119	1.250319533795
0	21530	21418.727403089403	1.658816784248
0	21535	21435.007467443988	1.300957474858
0	21540	21454.992244309005	1.245980977081
0	21547	21469.296340645778	1.655723839067
0	21550	21470.902074293534	2.18003389511
0	21555	21483.017958986205	1.608891720325
0	21560	21510.628272868772	1.885741588473
0	21567	21513.873447189707	1.551715052128
0	21575	21522.419604548354	1.260645914823
0	21582	21526.168551385625	1.665845815465
0	21585	21527.967772167398	2.112820997732
0	21590	21536.201345341021	1.595771427266
0	21595	21538.111792343944	1.807216364145
0	21602	21540.527566119505	1.449912543595
0	21605	21542.168161016552	2.044069404232
0	21610	21570.551206746751	1.910376181267
0	21622	21574.935362080808	1.300707737781
0	21625	21576.339556609418	1.795557424579
0	21632	21578.769178954403	1.257238921151
0	21635	21580.19008015849	2.576716140936
0	21640	21583.817798540828	1.355845069326
0	21645	21586.231001832142	1.957199182175
0	21662	21592.75965366377	3.716858147926
0	21665	21594.134453309648	2.858361304872
0	21677	21599.801564206363	3.794915988622
0	21680	21601.618401431845	2.126165706749
0	21692	21607.659648712293	1.731193438359
0	21697	21609.514016295352	6.541367489029
0	21714	21619.331282879713	1.821919337981
0	21717	21620.895729216303	4.67198575437
0	21725	21624.234712057216	5.825206505223
0	21732	21634.073524340543	1.951118245907
0	21735	21635.879116289805	2.305828375522
0	21740	21637.858902865871	1.497733427957
0	21750	21641.263991132836	1.953320320309
0	21755	21651.046263701086	1.211598891392
0	21762	21660.443866671658	1.837145083211
0	21765	21661.999317650161	2.994607003721
0	21770	21667.320008876611	1.495118477754
0	21777	21671.767153027522	1.962950889394
0	21780	21673.267148281502	2.049945703655
0	21787	21688.08717729859	1.716820487753
0	21790	21689.439446215704	1.607702411908
0	21805	21698.11237620235	1.307591404021
0	21817	21707.470757880144	1.263549391925
0	21820	21709.027291344747	1.814492692079
0	21825	21743.145197845782	1.530197321437
0	21830	21754.950065723955	1.340264074877
0	21835	21763.549122840479	1.419280402176
0	21842	21784.88927869157	1.71342785228
0	21847	21786.781466671946	3.268897425807
0	21850	21788.038719607452	2.800656200747
0	21855	21816.687034732134	1.208975790255
0	21880	21840.582008904972	4.368088902145
0	21887	21853.661619050008	1.608360962011
0	21890	21855.022041050856	1.925682572015
0	21897	21867.218185583747	1.327716081776
0	21900	21869.062025686785	2.734489672132
0	21907	21873.138363313814	1.908197029307
0	21912	21874.591479335119	3.149142525152
0	21924	21877.444963265721	1.87993815202
0	21929	21878.9153503058	3.078731766611
0	21932	21880.41843321747	3.639881221263
0	21937	21881.700587291968	4.216092877226
0	21940	21882.938653377396	2.225312328817
0	21945	21884.711957636237	1.315171237662
0	21950	21892.938145614336	1.24292057883
0	21955	21897.51108828931	1.83116821032
0	21965	21903.776715521397	1.899066510797
0	21972	21911.333901771771	1.868546910025
0	21982	21914.301678510996	2.142799635075
0	21994	21917.010403832288	2.132916900207
0	21999	21918.871460699344	8.402218265202
0	22011	21922.382149409185	3.284677165683
0	22014	21924.33313223781	3.963820378321
0	22017	21925.6697487122	12.545258227978
0	22025	21931.687985098646	1.572479809076
0	22035	21935.879619552247	3.934754860813
0	22040	21943.958360953362	1.740844694525
0	22059	21954.533318289425	6.906038883934
0	22062	21955.921598850433	3.511156671472
0	22075	21970.656486596277	3.462942494027
0	22090	21994.295207011591	5.62824831426
0	22100	21998.68569834091	1.437676575035
0	22110	22003.450193432332	1.238099798933
0	22115	22013.515890134243	1.684907454811
0	22120	22017.724479003506	1.270992492326
0	22125	22025.629549556595	1.826404081844
0	22130	22028.68712528815	1.226222193427
0	22135	22034.229982964198	1.498290223256
0	22140	22036.516815326433	1.215893875435
0	22150	22047.599431575215	3.557316834578
0	22160	22059.978128742496	2.881474890456
0	22172	22070.092328149889	5.021629196241
0	22175	22071.447138842631	1.466964330577
0	22180	22080.543821663624	1.527004751004
0	22187	22083.494626507599	1.475383156724
0	22190	22084.872585374925	2.380133819266
0	22195	22097.378611859055	1.48246844057
0	22200	22099.359045629936	1.938588514179
0	22207	22110.390681329666	1.284985901415
0	22210	22112.353447259514	3.179831040767
0	22220	22134.686361935048	1.982858137786
0	22230	22141.002586397478	3.506178031117
0	22237	22146.838454631477	1.795481244102
0	22245	22152.957659018157	1.873144567385
0	22250	22155.284163420187	1.426717297547
0	22255	22161.813695711209	1.95612081103
0	22260	22163.775753431827	1.27817965094
0	22265	22167.487333412756	1.416155514866
0	22270	22175.164484153127	1.326673242077
0	22275	22179.912835410208	1.697426962107
0	22285	22183.56419272854	3.369637279863
0	22290	22189.339680947434	1.594076609984
0	22295	22195.883988797322	1.737063860148
0	22300	22205.11073080907	1.615404386073
0	22310	22229.724587768067	3.232781951842
0	22320	22233.352892053091	1.716599649446
0	22325	22240.563456165392	1.396251616441
0	22330	22253.59613794185	1.42966713272
0	22340	22280.951418438086	1.525528423674
0	22345	22291.912080274944	1.874414932914
0	22350	22300.606249097169	1.921222255379
0	22355	22302.662745775923	1.991380612925
0	22365	22314.433592960218	3.947999140816
0	22377	22331.648235858048	2.174083338252
0	22380	22333.037951583045	3.46135099174
0	22385	22337.184283891862	1.69928148333
0	22390	22341.989076015528	1.809120572172
0	22395	22355.882108500152	1.686501169391
0	22400	22363.253277902559	1.939733222127
0	22405	22372.978306345617	1.905680422112
0	22410	22374.638600402715	1.23095852565
0	22415	22392.242834852479	1.232474311814
0	22422	22407.903650455916	1.548005461879
0	22425	22409.431143569382	2.891541106654
0	22430	22419.332949784931	1.941924978606
0	22440	22432.735967201715	1.7760628549
0	22445	22439.202048782825	1.698408024944
0	22450	22461.939340088165	1.995962318219
0	22455	22465.172004131185	1.638339164667
0	22460	22483.573549340683	1.686214203201
0	22465	22496.744771366442	1.933368743956
0	22470	22499.467345608632	1.666592483222
0	22475	22509.679080182619	1.975446288288
0	22482	22516.039323825374	1.64777198527
0	22490	22521.278680974301	6.168255711368
0	22495	22539.807523373188	1.474536547996
0	22510	22569.726209411962	3.721688250151
0	22515	22571.59336679713	1.460789266787
0	22520	22574.020082752062	1.350332605466
0	22525	22593.645004663303	1.94355647862
0	22530	22596.042547314264	1.840225861035
0	22535	22598.436048691527	1.890661725029
0	22540	22608.8818524263	1.713932925835
0	22550	22625.824596606387	1.629217932746
0	22555	22628.501733015626	1.94256654866
0	22562	22641.464850626287	1.6404037809
0	22574	22644.632988568174	3.838088442706
0	22584	22647.290018320421	1.8978196319
0	22587	22648.587409930827	4.221871531247
0	22597	22652.015379907901	3.071826770286
0	22602	22653.654227152618	4.643671521378
0	22605	22654.954250728676	2.456185919237
0	22610	22657.430133548783	1.370276180282
0	22620	22672.341385527759	1.617061601952
0	22627	22681.815239559053	1.69280915577
0	22630	22683.457306392244	1.799570460913
0	22635	22688.50761531539	1.960172323138
0	22640	22693.500476427602	1.401294491068
0	22652	22711.9254931437	4.237999092938
0	22655	22713.653949540496	2.64728996824
0	22665	22717.204749144887	3.174227933946
0	22675	22730.168275098316	3.615861394003
0	22685	22743.49435961847	1.424819855206
0	22707	22750.636687471617	2.239023818793
0	22715	22753.622756103286	5.197814382425
0	22720	22762.058111559789	1.558206022717
0	22732	22767.562543491123	1.891923192888
0	22735	22769.252865003271	5.323489002823
0	22745	22784.397923662027	1.491358946264
0	22755	22796.237630936151	4.459682027052
0	22760	22802.339238924044	1.932824320719
0	22765	22817.611091284983	1.634401202202
0	22770	22830.131382460314	1.943273310177
0	22782	22839.701322424661	1.926912390664
0	22785	22841.697899150911	3.862040710523
0	22790	22847.570142823408	1.668951918371
0	22802	22854.842036454345	2.362704101825
0	22812	22858.349456345069	2.563500327019
0	22815	22859.701736362244	8.473486386985
0	22830	22868.872529950008	6.552035462598
0	22835	22900.075354304131	1.685696203448
0	22842	22903.084662966558	1.557466777787
0	22850	22913.94291841948	1.996719131246
0	22867	22948.860749756327	1.911820253171
0	22870	22950.783779115571	3.14931745763
0	22890	22973.678986994094	1.663841449469
0	22897	22980.560657145059	1.648040791601
0	22900	22982.525866796611	3.019055814553
0	22912	22990.579770896459	1.899869386107
0	22915	22991.901982568452	2.083072001305
0	22925	23005.321242324797	1.336321463808
0	22932	23015.021036236317	1.627398188785
0	22935	23016.471333479651	1.757766879566
0	22940	23020.574405957513	1.785929133184
0	22945	23027.553865369967	1.334925151616
0	22957	23052.258140793745	1.816089963354
0	22960	23054.073386796121	3.207058982785
0	22965	23071.229060634516	1.790992816351
0	22975	23078.716795391591	1.859366533905
0	22980	23081.809446438838	1.421237038635
0	22985	23091.590000139512	1.669489520229
0	22992	23100.953216440574	1.8956977088
0	23010	23114.84590668962	1.564244755544
0	23025	23130.696445237425	1.623707644269
0	23037	23145.273971019054	1.769824277993
0	23040	23147.191850281993	5.104735917039
0	23065	23167.362696202922	1.930538874865
0	23070	23173.41672542154	1.202503585629
0	23075	23182.219195290403	1.786717327125
0	23080	23185.351247863211	1.838662062772
0	23085	23187.603908582627	1.950140899606
0	23100	23230.405387695992	1.447297516651
0	23117	23256.354527871329	5.738412655676
0	23122	23257.869251542743	5.215478318743
0	23125	23259.499525497313	1.910690976813
0	23132	23264.611310004209	1.699486089684
0	23135	23265.941314973076	1.539490272658
0	23140	23276.407085303234	1.859538486227
0	23145	23284.951372863125	1.679664623924
0	23150	23287.26930589704	1.547514948994
0	23155	23294.234287459989	1.602888329327
0	23167	23302.470548944416	4.859466003265
0	23182	23311.841199769299	1.827280056849
0	23185	23313.517315404709	5.579341533203
0	23190	23316.940154477896	1.46394083593
0	23207	23359.795120688791	2.741317999598
0	23215	23362.648428731303	1.673390791465
0	23220	23371.339111122306	1.478432125226
0	23230	23383.309121919276	2.441410839226
0	23240	23393.609557414845	3.445567865446
0	23245	23403.466326357021	1.697644114867
0	23262	23411.847887277319	3.099310473861
0	23269	23413.554121085531	3.313244752598
0	23272	23414.962184807188	2.998458706353
0	23275	23416.230936917751	3.712549300971
0	23280	23429.943801851683	1.610758175142
0	23287	23434.999483778164	1.652494817786
0	23290	23436.771239705965	2.228682028044
0	23295	23441.702846050434	1.28189301379
0	23305	23457.169577063648	1.340430384688
0	23310	23459.525321396235	1.89171337299
0	23317	23467.248604364228	1.630698399246
0	23320	23468.503187091742	1.59304371831
0	23325	23473.469662265295	1.782647512481
0	23330	23478.024226662391	1.225595994107
0	23335	23496.578902871888	1.790538112074
0	23349	23517.026442789904	2.383396936945
0	23352	23518.49541539593	2.507127537445
0	23355	23519.770871504828	5.596092939005
0	23370	23536.372820030433	1.960072314739
0	23390	23558.869440494852	1.704533351026
0	23400	23567.888058266181	1.397004720196
0	23405	23584.476524980571	1.450531231984
0	23410	23592.336540421763	1.308353542909
0	23415	23594.443141107734	1.497486581095
0	23420	23597.10871318712	1.725142310001
0	23427	23601.688829029522	1.858834850788
0	23430	23603.627685049906	2.106273265847
0	23435	23620.15946822762	1.830644431897
0	23440	23622.407866991748	1.509932013787
0	23455	23661.729057013551	3.251443223763
0	23462	23666.184401644049	1.766605999507
0	23485	23723.758148836735	1.651568096876
0	23490	23731.758385423711	1.240994839743
0	23495	23733.446946336531	1.52031394653
0	23500	23736.082264152075	1.386685648188
0	23510	23756.25638474734	1.280639986135
0	23517	23758.823285583375	1.958609675243
0	23520	23760.428621577812	10.871595330491
0	23525	23765.195749803431	1.508458727784
0	23530	23772.021847500885	1.697333029471
0	23550	23787.357209148396	1.81148269847
0	23555	23797.33570927968	1.864439070411
0	23560	23814.108046741492	1.859062477201
0	23565	23855.865812624658	1.954381386377
0	23579	23879.149393088559	1.973131241463
0	23582	23880.502879673804	2.631219336878
0	23585	23882.448770908083	4.4896773207
0	23595	23901.98304893896	3.805838355135
0	23602	23921.491866984846	1.644638182409
0	23605	23923.355737471836	2.828636147151
0	23610	23934.581382768086	1.510491267592
0	23622	23948.096005964137	3.916270400314
0	23625	23949.911327991492	2.3700146846
0	23630	23955.663017404645	1.466727112979
0	23635	23977.282216332657	1.916496826708
0	23640	23980.034007878618	1.856552116014
0	23650	23984.231775792739	3.692167106316
0	23657	24001.848380698886	1.637325910851
0	23660	24003.254979099397	2.799193517953
0	23665	24006.726137488605	1.977005013265
0	23670	24013.311460964595	1.710804663971
0	23675	24020.440717870628	1.374914609641
0	23680	24024.862423603733	1.796886548214
0	23685	24029.056364760176	1.925537073798
0	23692	24051.037999657282	1.811043525301
0	23695	24052.542503105031	2.341690312225
0	23700	24056.643018811741	1.833514678106
0	23705	24060.108937060172	1.476689738408
0	23720	24071.572680239848	1.666146387719
0	23725	24077.398799677123	1.470077
0	23730	24085.50136040026	1.508021788672
0	23745	24112.677429576257	5.81984977396
0	23755	24117.232555810041	2.09196014052
0	23760	24120.685398052085	1.758568313718
0	23769	24128.63220219657	1.347889321484
0	23774	24130.517477386521	3.019897764525
0	23782	24133.269873958902	2.371386653031
0	23796	24136.790559478181	8.031371473425
0	23799	24138.384574724997	3.901095940574
0	23802	24139.657728533524	3.852394980352
0	23805	24141.25511152156	5.42894652623
0	23810	24145.045094085442	1.572155107744
0	23815	24149.334852618724	1.604238941334
0	23820	24160.789959920044	1.704751516506
0	23827	24166.164968126032	1.937777933292
0	23840	24171.419301744501	3.497045354651
0	23845	24179.728941825134	1.872947211005
0	23850	24189.360363256576	1.941686338
0	23855	24191.238061405248	1.503937811218
0	23867	24196.350527433433	3.29290370604
0	23870	24198.03625023564	3.088304757789
0	23875	24202.147891180877	1.979742994718
0	23882	24213.618727634642	1.657842093147
0	23895	24219.641066452014	5.266639307824
0	23902	24228.296897378368	1.931886983477
0	23907	24230.138626266634	3.404612127079
0	23910	24232.001102961963	2.555385492147
0	23925	24254.032077542679	1.369083094411
0	23940	24265.808573283131	2.54004069592
0	23945	24269.903443436447	1.414376260154
0	23950	24283.3118605756	1.647892246954
0	23955	24284.993437967671	1.255774726532
0	23964	24294.525575470429	1.807857270725
0	23971	24296.154777976003	3.404008834607
0	23976	24297.953028385405	3.902258006202
0	23979	24299.184527238336	4.086483518584
0	23982	24300.486193212372	2.631480920707
0	23990	24304.053993473638	1.809325621998
0	23995	24305.77262652999	1.28335967008
0	24000	24314.272686035368	1.749470995739
0	24010	24350.537399790929	1.222902636044
0	24015	24359.241159397644	1.69993670918
0	24032	24377.7362380401	2.40105675155
0	24037	24379.539991430449	8.315854596878
0	24047	24400.757765545765	1.712307337485
0	24082	24419.748861851259	2.991671979799
0	24085	24421.239458934679	1.610397406712
0	24090	24423.890712602642	14.38933799986
0	24100	24436.032474370823	1.486840069294
0	24110	24444.332856869926	7.733932626992
0	24115	24449.273478030282	1.536745460331
0	24122	24459.967361665514	1.985556444898
0	24130	24470.133255408859	1.547938666679
0	24135	24490.774739916981	1.209262249805
0	24145	24499.790527052274	1.926585517159
0	24162	24505.733836256205	2.270256478948
0	24165	24507.21190823005	4.410328612477
0	24170	24512.967445402147	1.957874912955
0	24175	24516.654863306052	1.269398962893
0	24182	24521.282006381924	1.872132964805
0	24185	24522.725177202473	2.792666708633
0	24190	24524.955896255765	1.302420880273
0	24195	24533.0749175499	1.746171548404
0	24202	24552.425980443872	1.523470519483
0	24207	24553.763941660515	1.537425144509
0	24220	24558.51341977167	1.941121352439
0	24227	24567.637308120278	1.426463802718
0	24237	24570.34980855949	1.431076203923
0	24244	24572.324903755558	4.88083890553
0	24247	24574.01206259608	2.778548357723
0	24250	24575.321544156519	3.313769126418
0	24255	24588.06655192073	1.899134932645
0	24265	24593.659280757983	5.322148405998
0	24282	24605.415236838848	1.8736865554
0	24290	24611.570846459399	7.103526850134
0	24307	24620.932580313723	2.163116412725
[...]
6	28883	29043.858570287863	1
6	28886	29045.332313375848	0
6	28935	29118.048437190739	1
6	28936	29119.311136161584	0
6	28960	29148.169334230783	1
6	28961	29149.200751918107	0
6	28965	29149.644814228098	1
6	28967	29149.657584922797	2
6	28968	29150.943105111196	1
6	28972	29152.009392289735	2
6	28973	29152.210597200058	1
6	28977	29152.213947593135	2
6	28978	29153.619763800799	1
6	28981	29155.521021954267	0
6	28985	29156.482646748195	1
6	28986	29157.48961802285	0
6	29022	29188.592619406713	1
6	29023	29188.846887326215	0
6	29030	29190.83866828219	1
6	29032	29190.961163955642	2
6	29034	29191.048110421447	3
6	29035	29192.121013526406	2
6	29038	29193.801816870805	1
6	29042	29194.895603435945	2
6	29043	29195.134181568932	1
6	29046	29196.361045280818	0
6	29055	29198.55817124324	1
6	29056	29200.054828245182	0
6	29060	29200.357043689823	1
6	29061	29201.906341240917	0
6	29125	29311.562225666949	1
6	29126	29312.820648532296	0
6	29135	29315.857443145341	1
6	29136	29316.189366735565	0
6	29150	29322.246439307834	1
6	29151	29323.341671262145	0
6	29160	29326.456782077993	1
6	29161	29326.829188750834	0
6	29165	29327.559764946823	1
6	29166	29328.527747613714	0
6	29210	29383.009632413556	1
6	29211	29384.537548813967	0
6	29235	29406.936669861589	1
6	29237	29406.957607757807	2
6	29238	29407.009548946205	1
6	29241	29408.501832233291	0
6	29245	29410.324438406432	1
6	29246	29410.353745856803	0
6	29255	29412.8766460411	1
6	29256	29413.809896480006	0
6	29275	29432.870810421221	1
6	29276	29433.963005013196	0
6	29280	29434.34348372952	1
6	29281	29435.242420749916	0
6	29330	29476.355994713172	1
6	29331	29477.718294219275	0
6	29340	29480.404732958704	1
6	29341	29481.763695236656	0
6	29345	29482.497368618135	1
6	29346	29483.640495748247	0
6	29385	29523.878613351971	1
6	29386	29523.884929849821	0
6	29420	29553.247266569411	1
6	29421	29553.514418450355	0
6	29425	29554.737538327307	1
6	29426	29555.339214053362	0
6	29430	29555.906614488026	1
6	29431	29556.842271545141	0
6	29440	29558.864048959247	1
6	29441	29559.315816134199	0
6	29445	29559.650836578343	1
6	29446	29561.126273781791	0
6	29465	29572.470297714404	1
6	29466	29573.309191539962	0
6	29475	29577.700127345692	1
6	29476	29579.094244879126	0
6	29490	29585.336006839894	1
6	29491	29586.494040233096	0
6	29530	29624.654657054041	1
6	29531	29625.742992841655	0
6	29595	29684.498844873233	1
6	29596	29685.324694676715	0
6	29615	29705.871677539663	1
6	29616	29706.363106491218	0
6	29630	29711.401035333818	1
6	29632	29712.0083964213	2
6	29633	29712.988401393981	1
6	29637	29713.319562948265	2
6	29638	29714.842089812101	1
6	29642	29716.290289239479	2
6	29643	29716.81214480234	1
6	29646	29718.171876942009	0
6	29660	29728.088476781127	1
6	29661	29729.789594942319	0
6	29665	29730.504058630298	1
6	29666	29730.99554716068	0
6	29679	29733.048026630596	1
6	29680	29734.882654908659	0
6	29687	29737.223844361852	1
6	29690	29737.696331161434	0
6	29700	29740.938937729078	1
6	29701	29741.790755829389	0
6	29705	29743.455773946484	1
6	29706	29743.710639769013	0
6	29810	29870.898301846735	1
6	29812	29872.265933197068	2
6	29813	29872.69159554638	1
6	29817	29874.007323958885	2
6	29818	29874.685429427438	1
6	29821	29876.317784624957	0
6	29825	29877.28135209108	1
6	29826	29877.73519191131	0
6	29830	29879.028213815715	1
6	29831	29879.17771558132	0
6	29865	29908.568989553173	1
6	29866	29909.212296362796	0
6	29895	29930.770354774808	1
6	29896	29930.837075915505	0
6	29927	29956.416234419798	1
6	29928	29956.595811175112	0
6	29932	29956.752687506393	1
6	29933	29958.390670253825	0
6	29940	29960.970999814292	1
6	29941	29961.57947318193	0
6	29950	29972.150612722917	1
6	29951	29972.37967566161	0
6	29955	29973.42593470142	1
6	29959	29973.799254740716	2
6	29960	29974.360098901415	1
6	29964	29975.620099418775	2
6	29965	29976.127311321372	1
6	29968	29977.663350869739	0
6	29972	29978.133186791451	1
6	29973	29979.378492057534	0
6	29980	29982.056240934055	1
6	29981	29982.388175360697	0
6	29985	29983.164231121487	1
6	29987	29983.845277142869	2
6	29988	29984.220663421626	1
6	29993	29985.893891030202	0
6	29997	29986.892977810654	1
6	29998	29987.774623804005	0
6	30015	29994.027999075647	1
6	30016	29994.051090879179	0
7	10290	10124.656986991453	1
7	10291	10125.390044958951	0
7	10410	10294.537617826937	1
7	10411	10294.647070543206	0
7	10435	10305.367628038556	1
7	10436	10306.837502831421	0
7	10465	10343.67290573741	1
7	10466	10345.424665718542	0
7	10480	10348.606379553722	1
7	10482	10349.529170115023	2
7	10483	10350.408234420808	1
7	10491	10353.917180468159	0
7	10522	10385.291328475154	1
7	10526	10387.560834389149	0
7	10595	10411.432107338752	1
7	10596	10412.672239336795	0
7	10765	10563.277673073078	1
7	10766	10563.654985594813	0
7	10785	10578.804113764009	1
7	10786	10578.979190518716	0
7	10810	10602.246146251374	1
7	10811	10603.143230369225	0
7	10885	10735.103064751225	1
7	10886	10735.549860681433	0
7	10905	10747.467496783966	1
7	10906	10748.898114456724	0
7	10925	10759.983546777594	1
7	10926	10761.460969188165	0
7	10975	10803.20585605987	1
7	10976	10803.593053119542	0
7	11065	10912.238840558814	1
7	11066	10913.173172815691	0
7	11240	11070.964301339371	1
7	11251	11075.964703336623	0
7	11370	11230.093125374834	1
7	11371	11230.132743492915	0
7	11380	11234.938082103511	1
7	11381	11236.007406015275	0
7	11390	11239.001706654769	1
7	11391	11239.175950947451	0
7	11545	11388.545982148337	1
7	11546	11389.423607992714	0
7	11550	11390.557571975673	1
7	11551	11390.853786646908	0
7	11565	11403.222150016598	1
7	11566	11403.443126651087	0
7	11575	11405.58605315916	1
7	11576	11407.203876342015	0
7	11585	11409.353386853305	1
7	11587	11409.584460670884	2
7	11588	11409.781191260504	1
7	11596	11413.755590091969	0
7	11650	11453.200605836803	1
7	11651	11453.296902618205	0
7	11725	11534.657960228454	1
7	11726	11536.430364399158	0
7	11960	11822.819232839818	1
7	11961	11823.770220955766	0
7	12085	12026.638582073035	1
7	12086	12028.172896795159	0
7	12100	12043.247101349088	1
7	12101	12044.625399959221	0
7	12122	12051.35705320303	1
7	12127	12052.016040628698	2
7	12128	12053.096101135366	1
7	12131	12054.690209068336	0
7	12195	12110.261544632553	1
7	12196	12111.056459512028	0
7	12245	12146.021129274931	1
7	12256	12150.495960255535	0
7	12280	12170.4135648615	1
7	12281	12171.133815833075	0
7	12590	12477.128250418499	1
7	12591	12478.272689692375	0
7	12705	12589.039785656783	1
7	12706	12589.689511535647	0
7	12780	12708.298362555154	1
7	12781	12709.178614155506	0
7	12790	12711.076350066767	1
7	12791	12712.522380179336	0
7	12875	12815.580912542259	1
7	12876	12816.573068374645	0
7	13015	12953.307811150933	1
7	13016	12955.085007859071	0
7	13060	13014.170917987074	1
7	13061	13014.971586393479	0
7	13260	13174.707724064692	1
7	13262	13175.307452661156	2
7	13263	13175.984742979981	1
7	13266	13177.393725483395	0
7	13280	13182.024799626043	1
7	13281	13182.096940384375	0
7	13285	13183.429301309818	1
7	13286	13183.451067133376	0
7	13407	13297.764376392682	1
7	13411	13299.865378722763	0
7	13425	13322.756383212844	1
7	13426	13324.032650637689	0
7	13550	13402.193708190978	1
7	13551	13403.443336622893	0
7	13581	13412.743898812481	1
7	13586	13414.624675131947	2
7	13598	13419.296805433299	1
7	13617	13424.609630364747	2
7	13618	13426.405605447035	1
7	13621	13428.394087507505	0
7	13625	13429.868559493874	1
7	13626	13430.247263446007	0
7	13635	13432.659274575864	1
7	13636	13433.482798177259	0
7	13675	13453.493462460998	1
7	13676	13455.062176758399	0
7	13690	13459.581995182773	1
7	13691	13459.957507799914	0
7	13742	13516.8030089165	1
7	13746	13519.552559720692	0
7	13925	13788.391153619105	1
7	13926	13788.44975917529	0
7	14104	14015.608606856146	1
7	14131	14024.971054613294	0
7	14205	14092.125411281614	1
7	14206	14093.011333574352	0
7	14215	14095.080855718161	1
7	14221	14097.573267327806	0
7	14270	14150.655807163597	1
7	14271	14151.13625020862	0
7	14275	14151.251591861629	1
7	14276	14152.99902743746	0
7	14332	14195.094698370352	1
7	14342	14198.035712328652	2
7	14343	14198.95865584039	1
7	14346	14200.46367479232	0
7	14395	14244.22294876395	1
7	14396	14245.712729809283	0
7	14465	14324.231393147151	1
7	14466	14324.785502171506	0
7	14480	14348.901842251057	1
7	14481	14350.686677269871	0
7	14530	14415.480464271473	1
7	14531	14416.68694874586	0
7	14635	14519.510646253295	1
7	14636	14520.196484403065	0
7	14874	14769.605737923054	1
7	14896	14778.999995740349	0
7	15060	14988.208940004565	1
7	15061	14988.535314744962	0
7	15065	14989.152871949797	1
7	15071	14992.20469172622	0
7	15155	15098.238018968829	1
7	15156	15098.473182304012	0
7	15240	15206.08891110411	1
7	15241	15207.544304320831	0
7	15455	15406.385204547316	1
7	15456	15407.065673791925	0
7	15465	15409.901534328665	1
7	15466	15410.269950984726	0
7	15882	15842.150470938324	1
7	15901	15848.998417824272	0
7	15930	15861.365492742438	1
7	15931	15861.661442228488	0
7	16085	16020.716614514331	1
7	16086	16020.958121519574	0
7	16149	16136.068935791793	1
7	16156	16139.35630162628	0
7	16180	16154.748669872554	1
7	16181	16156.042544176123	0
7	16200	16163.801449964886	1
7	16201	16164.438045648168	0
7	16315	16313.849038447913	1
7	16316	16315.136452964957	0
7	16372	16356.285567165389	1
7	16377	16357.4456262063	2
7	16378	16358.49494461814	1
7	16381	16360.184280810934	0
7	16539	16496.286940266777	1
7	16551	16501.659174114861	0
7	16635	16579.741739673103	1
7	16636	16579.878002721114	0
7	16975	16933.876349696925	1
7	16981	16936.066839301353	0
7	17000	16977.057724169871	1
7	17001	16978.420741059189	0
7	17017	16982.550096477011	1
7	17021	16984.577809208563	0
7	17070	17052.884048848965	1
7	17071	17054.185651763333	0
7	17080	17057.075727148343	1
7	17081	17058.521790862046	0
7	17095	17092.688300421195	1
7	17096	17093.052017431516	0
7	17155	17130.932400709591	1
7	17156	17131.478875108157	0
7	17430	17512.335917908053	1
7	17436	17515.275550075622	0
7	17560	17664.440234381017	1
7	17561	17665.506052288682	0
7	17575	17675.572306911252	1
7	17576	17675.668128838467	0
7	17640	17757.667304287006	1
7	17641	17759.591837465418	0
7	17690	17801.596514793982	1
7	17691	17801.637323925135	0
7	17780	17932.399485914841	1
7	17781	17932.767937872579	0
7	17885	18016.10362865449	1
7	17886	18017.471484907833	0
7	17910	18026.845835443417	1
7	17911	18028.418403430217	0
7	17920	18030.371562862367	1
7	17921	18031.399120999993	0
7	17930	18034.648177055222	1
7	17936	18036.613913729535	0
7	17940	18036.727953600191	1
7	17942	18037.454465586151	2
7	17943	18037.875553339095	1
7	17946	18039.381624361248	0
7	17960	18053.403598207237	1
7	17961	18053.421493889932	0
7	18040	18146.736309255228	1
7	18041	18147.421997147319	0
7	18175	18311.835746361665	1
7	18176	18313.35808863506	0
7	18220	18342.894737481655	1
7	18221	18344.09321068552	0
7	18310	18446.454285705962	1
7	18316	18448.904815595391	0
7	18400	18509.791380217675	1
7	18401	18510.938006509321	0
7	18445	18535.124790064799	1
7	18446	18536.018160852423	0
7	18540	18635.261314980216	1
7	18541	18636.903792583491	0
7	18590	18681.689664007457	1
7	18591	18683.354070412564	0
7	18660	18757.482852649388	1
7	18661	18757.869726167711	0
7	18935	19047.352877745437	1
7	18936	19047.884523957965	0
7	18965	19076.842752986842	1
7	18966	19076.971299617684	0
7	19020	19120.513033096483	1
7	19021	19121.680006454874	0
7	19025	19121.745691344575	1
7	19026	19123.20528016555	0
7	19102	19195.802071815918	1
7	19126	19204.468584364445	0
7	19135	19207.597439126762	1
7	19136	19209.227279981592	0
7	19177	19239.503034883133	1
7	19181	19241.076194329553	0
7	19505	19555.037697054339	1
7	19506	19555.372304295937	0
7	19640	19692.880361159791	1
7	19641	19693.423462748385	0
7	19650	19725.065650220192	1
7	19651	19726.613915243601	0
7	19660	19737.170708204021	1
7	19661	19738.30324986891	0
7	19670	19740.78197079536	1
7	19671	19741.893780894365	0
7	19700	19769.810608366142	1
7	19701	19770.624246050227	0
7	19720	19776.863252723299	1
7	19721	19776.97514315259	0
7	19810	19831.460652781269	1
7	19812	19831.588368533531	2
7	19813	19831.717484682642	1
7	19816	19833.623300791189	0
7	19859	19853.435819964917	1
7	19866	19857.941337616186	0
7	19905	19890.431331941794	1
7	19906	19891.491690365224	0
7	20105	20106.529184978137	1
7	20106	20108.184972161634	0
7	20120	20119.614030036627	1
7	20121	20120.647701351151	0
7	20130	20123.555323060824	1
7	20156	20133.177999404326	0
7	20255	20232.114239685728	1
7	20256	20233.16229990006	0
7	20260	20234.126188010676	1
7	20261	20235.055167042022	0
7	20395	20381.230647256495	1
7	20396	20382.495884496774	0
7	20497	20450.507899506282	1
7	20506	20453.539598790131	0
7	20520	20457.968019563542	1
7	20521	20459.10420068091	0
7	20545	20482.856087358184	1
7	20546	20483.40479424205	0
7	20570	20524.91528979618	1
7	20571	20525.286760531691	0
7	20690	20674.054517404958	1
7	20691	20674.810213609541	0
7	20695	20676.684864693722	1
7	20696	20676.686513326073	0
7	20890	20828.408817417867	1
7	20891	20829.804304051011	0
7	20900	20831.757439622728	1
7	20901	20832.685064039736	0
7	20927	20859.656899825273	1
7	20936	20862.801641389423	0
7	20945	20865.523581103369	1
7	20946	20866.110525360399	0
7	21160	21097.068955837812	1
7	21161	21097.354656888146	0
7	21235	21136.153677128093	1
7	21236	21136.454792220747	0
7	21250	21144.182614640711	1
7	21251	21144.206403209316	0
7	21315	21206.090165167397	1
7	21316	21207.889101540707	0
7	21370	21253.828847749276	1
7	21371	21254.08590467913	0
7	21382	21257.769998827074	1
7	21386	21260.450078218219	0
7	21445	21320.333067124902	1
7	21447	21320.893014229736	2
7	21448	21321.305031621053	1
7	21456	21324.838797481514	0
7	21565	21513.629697866252	1
7	21566	21513.873447189707	0
7	21695	21609.184338926689	1
7	21696	21609.514016295352	0
7	21910	21874.386581327933	1
7	21911	21874.591479335119	0
7	21992	21915.791787766058	1
7	22016	21925.6697487122	0
7	22057	21953.754729322485	1
7	22061	21955.921598850433	0
7	22235	22146.204155192981	1
7	22236	22146.838454631477	0
7	22570	22644.012959940272	1
7	22586	22648.587409930827	0
7	22840	22902.503465390762	1
7	22841	22903.084662966558	0
7	22875	22958.89794888426	1
7	22876	22960.225787499235	0
7	22990	23100.574096425594	1
7	22991	23100.953216440574	0
7	23050	23149.040339147538	1
7	23051	23150.729300481007	0
7	23165	23300.542506315804	1
7	23166	23302.470548944416	0
7	23202	23358.147199140608	1
7	23206	23359.795120688791	0
7	23360	23522.429241311801	1
7	23361	23523.424045285649	0
7	23460	23665.872590793078	1
7	23461	23666.184401644049	0
7	23767	24128.206932986037	1
7	23781	24133.269873958902	0
7	23825	24165.284094459983	1
7	23826	24166.164968126032	0
7	23830	24167.185930947265	1
7	23831	24167.671977315049	0
7	23880	24211.999285312164	1
7	23881	24213.618727634642	0
7	23969	24295.96164692015	1
7	23981	24300.486193212372	0
7	24035	24377.943583914407	1
7	24036	24379.539991430449	0
7	24045	24400.080073496698	1
7	24046	24400.757765545765	0
7	24120	24459.282329898578	1
7	24121	24459.967361665514	0
7	24205	24552.996136646601	1
7	24206	24553.763941660515	0
7	24365	24668.246810224502	1
7	24366	24669.438378787084	0
7	24445	24751.008552442671	1
7	24446	24751.908904459529	0
7	24547	24826.639147063749	1
7	24551	24828.902726618196	0
7	24580	24856.653628039844	1
7	24582	24856.919275858436	2
7	24583	24858.159822883134	1
7	24586	24859.74421044444	0
7	24675	24938.128945081408	1
7	24676	24939.342112331119	0
7	24715	24987.941430154166	1
7	24716	24988.846900012081	0
7	24837	25115.658142165342	1
7	24841	25118.144116767784	0
7	24860	25144.037271319881	1
7	24861	25145.109743268807	0
7	24940	25191.625650294394	1
7	24946	25194.218856492321	0
7	24990	25224.920840138731	1
7	24991	25225.777913384004	0
7	25080	25316.055138347116	1
7	25081	25316.615824596806	0
7	25222	25533.681265962013	1
7	25231	25537.923172615823	0
7	25325	25640.769370855597	1
7	25326	25641.69858605891	0
7	25492	25825.418027985667	1
7	25496	25827.992398637742	0
7	25540	25903.048272639076	1
7	25546	25905.066507252029	0
7	25565	25919.069357290042	1
7	25576	25923.731904318461	0
7	25600	25942.263348819279	1
7	25601	25942.696315058527	0
7	25682	25986.976590494997	1
7	25691	25991.624514504796	0
7	25745	26054.663744276496	1
7	25746	26055.171840522857	0
7	25809	26091.292152860383	1
7	25821	26096.439026289779	0
7	25870	26125.945060826723	1
7	25871	26126.468748037205	0
7	25915	26170.198473120084	1
7	25916	26170.449842631853	0
7	26000	26289.256772767443	1
7	26001	26290.152018893839	0
7	26085	26367.006674148209	1
7	26086	26367.545372556185	0
7	26100	26371.599262355624	1
7	26101	26372.280830049612	0
7	26110	26394.91151447308	1
7	26111	26395.933047149575	0
7	26145	26417.362146990903	1
7	26146	26418.429165997193	0
7	26245	26529.653682491054	1
7	26246	26530.441776368028	0
7	26365	26663.228275819984	1
7	26366	26664.288165480076	0
7	26395	26700.425743548321	1
7	26396	26701.099942232001	0
7	26445	26748.396672297162	1
7	26446	26749.172455975399	0
7	26490	26774.168226028423	1
7	26491	26774.722771004533	0
7	26610	26891.2669354105	1
7	26611	26891.45209852807	0
7	26625	26898.151028111726	1
7	26626	26899.105778637064	0
7	26655	26939.764533805753	1
7	26656	26941.616788718501	0
7	26940	27231.508355834974	1
7	26941	27231.78600189285	0
7	26970	27253.254069262352	1
7	26971	27253.320755042376	0
7	27015	27316.013188283982	1
7	27016	27317.137665599953	0
7	27027	27319.482108456471	1
7	27029	27319.965447269374	2
7	27038	27323.987692928124	1
7	27051	27328.655536796335	0
7	27140	27436.397373924799	1
7	27141	27437.452089179019	0
7	27180	27454.506186130829	1
7	27186	27456.784174802931	0
7	27197	27458.93958692969	1
7	27206	27462.679043151284	0
7	27532	27737.920489390928	1
7	27551	27745.880290213628	0
7	27610	27803.05121028107	1
7	27611	27804.698055113489	0
7	27775	27954.090915261455	1
7	27786	27957.925612501332	0
7	27850	28018.132677596514	1
7	27851	28019.675599404042	0
7	27910	28102.836656963727	1
7	27911	28103.594071189301	0
7	27992	28179.91700319757	1
7	28006	28184.63883300166	0
7	28035	28209.773850786481	1
7	28036	28210.032844036485	0
7	28095	28279.660487655578	1
7	28096	28280.705561942561	0
7	28142	28319.55212252657	1
7	28151	28323.29765644697	0
7	28200	28346.347381471051	1
7	28206	28349.70287662784	0
7	28247	28375.523387039809	1
7	28251	28378.216652574043	0
7	28265	28381.434607888203	1
7	28266	28382.424016703381	0
7	28390	28528.337529753783	1
7	28391	28528.35357936724	0
7	28405	28547.307772869382	1
7	28406	28547.462672413375	0
7	28455	28591.532859535362	1
7	28457	28592.489345425163	2
7	28458	28593.151719794522	1
7	28461	28594.884601120378	0
7	28505	28651.032449058462	1
7	28506	28652.663958007668	0
7	28510	28653.302183588902	1
7	28511	28653.940969281656	0
7	28635	28796.739393290438	1
7	28636	28796.848062426231	0
7	28720	28864.35532468673	1
7	28721	28864.522413772014	0
7	28735	28869.719960340572	1
7	28736	28870.496367393109	0
7	28750	28877.60192047144	1
7	28751	28878.711557904936	0
7	28910	29078.696392582575	1
7	28911	29079.785358613415	0
7	29020	29188.258712053977	1
7	29026	29190.267403066505	0
7	29300	29450.812403771046	1
7	29301	29451.753616234155	0
7	29435	29557.539248510192	1
7	29436	29558.06516149415	0
7	29540	29628.883691558958	1
7	29541	29630.032501286295	0
7	29670	29731.293741673928	1
7	29672	29731.626702975858	2
7	29674	29731.788175002565	3
7	29675	29732.953930312755	2
7	29683	29736.307639411824	1
7	29689	29737.690215431097	2
7	29693	29738.904629965114	1
7	29696	29740.480566577601	0
7	29745	29770.098889616104	1
7	29746	29770.199175006292	0
7	29835	29879.690353375029	1
7	29836	29880.620673311353	0
7	29900	29931.772150672356	1
7	29901	29932.626502945405	0
7	29925	29955.09350424904	1
7	29936	29959.955105831963	0
7	29957	29973.609205694517	1
7	29976	29980.709804121057	0
7	29992	29984.9358116242	1
7	30001	29989.047860433186	0
7	30010	29991.23372835016	1
7	30011	29992.337131525017	0
8	12535	12446.12255183472	1
8	12539	12451.715185141855	0
8	14940	14838.053845508867	1
8	14941	14839.997300664705	0
8	16752	16695.679141172156	1
8	16754	16695.812004870685	0
8	18795	18902.766798978072	1
8	18796	18904.251852085089	0
8	20847	20805.039327945487	1
8	20849	20805.544547545389	0
8	20855	20808.340877325201	1
8	20856	20808.395367979292	0
8	27207	27462.679043151284	1
8	27211	27464.619794515342	0
9	17927	18033.198363443771	1
9	17929	18034.648177055222	0

