version 2
run Third_exit_2-9-20191114-11:42:52-8989
attr configname Third_exit_2
attr datetime 20191114-11:42:52
attr experiment Third_exit_2
attr inifile omnetpp.ini
attr iterationvars ""
attr iterationvarsf ""
attr measurement ""
attr network ResponseTimeNetwork
attr processid 8989
attr repetition 9
attr replication #9
attr resultdir results
attr runnumber 9
attr seedset 9
param **.Source.interArrivalTime exponential(6s)
param **.jobPriority bernoulli(0.8)
param **.PS.serviceTimeU1 "uniform(1.2s, 2.0s)"
param **.PS.serviceTimeU2 "uniform(2.4s, 2.8s)"
param **.SS1.serviceTime exponential(1.4s)
param **.SS2.serviceTime exponential(2s)
param **.PS.exitProbability bernoulli(0.2)

vector 0 ResponseTimeNetwork.sink lifeTimeU1:vector ETV
attr interpolationmode none
attr title "lifetime of arrived jobs U1, vector"
attr unit s
vector 1 ResponseTimeNetwork.sink totalServiceTimeU1:vector ETV
attr interpolationmode none
attr title "the total time spent  by arrived jobs U1, vector"
attr unit s
vector 2 ResponseTimeNetwork.sink lifeTime:vector ETV
attr interpolationmode none
attr title "lifetime of arrived jobs, vector"
attr unit s
vector 3 ResponseTimeNetwork.sink totalServiceTime:vector ETV
attr interpolationmode none
attr title "the total time spent  by arrived jobs, vector"
attr unit s
vector 4 ResponseTimeNetwork.sink lifeTimeU2:vector ETV
attr interpolationmode none
attr title "lifetime of arrived jobs U2, vector"
attr unit s
vector 5 ResponseTimeNetwork.sink totalServiceTimeU2:vector ETV
attr interpolationmode none
attr title "the total time spent  by arrived jobs U2, vector"
attr unit s
vector 6 ResponseTimeNetwork.QueueU1 queueLength:vector ETV
attr interpolationmode sample-hold
attr title "queue length, vector"
vector 7 ResponseTimeNetwork.QueueU2 queueLength:vector ETV
attr interpolationmode sample-hold
attr title "queue length, vector"
vector 8 ResponseTimeNetwork.SS1 queueLength:vector ETV
attr interpolationmode sample-hold
attr title "queue length, vector"
vector 9 ResponseTimeNetwork.SS2 queueLength:vector ETV
attr interpolationmode sample-hold
attr title "queue length, vector"
0	11055	10000.348353876655	1.440929567441
0	11060	10012.066042983089	1.431259067915
0	11065	10016.071856247431	1.246990187652
0	11070	10029.055394113764	1.951439456455
0	11082	10044.759320673246	1.243538578413
0	11092	10048.354882383638	3.955942829802
0	11095	10049.793627340824	2.357425597496
0	11116	10060.427129408582	2.471845634672
0	11119	10061.950917118466	3.204693214454
0	11127	10065.139723081752	1.64266366722
0	11145	10081.306544979837	1.274136254564
0	11152	10087.371002658716	1.806261667795
0	11172	10096.333651214136	1.837925293659
0	11175	10097.82838877984	7.867021494893
0	11182	10103.364287164419	1.637506086566
0	11185	10105.082455655172	2.206703271673
0	11195	10125.186033357167	2.065700124643
0	11200	10129.112654056681	1.794749849662
0	11219	10154.930681448076	4.789842357775
0	11227	10158.264951784927	3.656509074635
0	11235	10162.390268339902	10.347811008726
0	11252	10182.925110032614	1.585642014258
0	11255	10184.273085372913	9.808051004052
0	11267	10187.132122071676	1.293819748275
0	11270	10188.395583626472	3.812778594346
0	11275	10192.486434177884	1.922363569774
0	11290	10223.691723237547	1.452610749565
0	11300	10230.657918287218	1.968082353286
0	11307	10238.427199158265	1.978560860641
0	11310	10240.178691713891	2.121816370011
0	11315	10242.267204080685	1.358836763166
0	11320	10249.387616145744	1.615744442493
0	11330	10270.695211528269	1.754947949573
0	11340	10279.437452236314	1.516465787217
0	11345	10285.195539810677	1.628643710166
0	11350	10288.673151066449	1.784739662521
0	11360	10300.271879870709	1.22287757583
0	11380	10323.364277086053	1.665377146192
0	11385	10326.993174622541	1.604096248001
0	11390	10344.646555759425	1.450544495508
0	11395	10355.186108259817	1.391434477642
0	11426	10372.449183761836	6.420911200189
0	11431	10374.278582649254	3.441970234347
0	11434	10375.850387690724	3.038761330885
0	11452	10384.677609686179	1.70315788649
0	11467	10393.873540901481	1.369490995817
0	11470	10395.709379333346	2.586971243357
0	11475	10398.927663477335	1.465015338734
0	11490	10407.69591679154	5.079752859265
0	11495	10409.443322927204	5.0401405975
0	11500	10414.916413881739	1.238523528352
0	11505	10418.869304650907	1.473444320075
0	11515	10433.119701039869	1.452249802835
0	11520	10436.130010564086	1.54541963879
0	11525	10448.937155606685	1.602022384107
0	11547	10459.194178142443	1.424530467577
0	11550	10460.720469274789	9.241746508236
0	11555	10462.545301896003	1.534225098789
0	11560	10475.408695696885	1.279102206044
0	11565	10487.232275943363	1.912857535109
0	11570	10507.848791622725	1.77242542468
0	11575	10514.886634346281	1.917373641394
0	11585	10521.104652386889	1.306734635122
0	11590	10524.29325012253	6.55622588118
0	11597	10537.563626816599	1.544709585421
0	11602	10539.309797068788	2.362996405224
0	11607	10540.937864284134	1.830551213058
0	11612	10542.240065146154	2.633781888079
0	11615	10543.686304302803	2.264658859556
0	11625	10568.205810586149	6.251012454929
0	11645	10596.938827592835	5.187533576875
0	11650	10604.732445995526	1.609119731747
0	11655	10615.215701749693	1.851916101575
0	11660	10635.392987956064	1.241145050339
0	11665	10644.422013030358	1.699068086967
0	11672	10648.577652953859	1.402995075099
0	11685	10654.103728275423	6.782677738355
0	11697	10662.112658191718	6.050685728802
0	11705	10665.471482330807	1.683978159578
0	11710	10669.361852201318	8.225540734417
0	11720	10680.988203736314	4.10592183407
0	11732	10694.92121105963	1.499299141414
0	11735	10696.39289670033	4.635158735141
0	11751	10701.740213936507	2.611152425694
0	11754	10703.618698728956	4.140550024227
0	11757	10705.244397182703	6.383977372945
0	11767	10710.644445962753	1.713661596552
0	11770	10712.1004235414	3.010764404853
0	11785	10724.517245792717	1.815497468784
0	11790	10737.26095233517	1.725422423519
0	11795	10749.117991956983	1.294757233001
0	11810	10764.016344335244	1.856061057374
0	11815	10776.210866228231	1.708732931688
0	11825	10785.676841914613	1.398701729253
0	11830	10789.236226416694	1.497642759606
0	11835	10793.669665596394	1.664568032511
0	11840	10805.768340019404	1.829409492016
0	11845	10826.932885853944	1.960414588079
0	11855	10839.238535962755	3.797155851962
0	11860	10843.843467468627	1.520768612809
0	11874	10863.519843412884	2.002113237412
0	11879	10864.906902574137	3.132128694773
0	11882	10866.395493765123	3.546346970326
0	11892	10869.367096532373	1.644129674695
0	11900	10872.744640710026	8.147266419213
0	11907	10878.414946322436	1.488307319209
0	11910	10879.629327095407	1.972263203129
0	11915	10884.819943630253	1.56175822001
0	11920	10887.968288615756	1.464267525077
0	11925	10893.415152153202	1.456691470928
0	11947	10912.300469439993	3.72999539494
0	11952	10913.947200349862	2.010243989974
0	11955	10915.580423592733	3.028187245035
0	11960	10917.410331536828	1.503359142691
0	11965	10933.747177099603	1.661115436815
0	11975	10948.853751095019	1.794977776147
0	11980	10951.085258797396	1.379078090936
0	11990	10961.215427094939	2.445830552301
0	11995	10969.476995615709	1.638038713112
0	12005	10978.799001304251	5.310924818684
0	12010	10989.403201523126	1.608473842777
0	12015	10995.491823724248	1.428540772945
0	12020	11014.683194369	1.37862771377
0	12040	11045.987065802088	1.547233000584
0	12045	11050.385970261248	1.203329615854
0	12050	11054.960063314558	1.682822718471
0	12065	11065.685848250323	4.818507900425
0	12072	11091.623942770705	1.46704436671
0	12075	11093.117690470897	2.509423673425
0	12080	11117.793838240975	1.519700678252
0	12087	11121.097241575767	1.491962146759
0	12097	11126.556717505507	1.608170277998
0	12109	11131.391072394205	1.237179734744
0	12112	11133.009657964734	12.498064346585
0	12115	11134.806615767134	3.553940660352
0	12120	11145.395797928461	1.718205120973
0	12127	11156.011631860254	1.686848413385
0	12130	11157.479185508234	2.37053353137
0	12135	11159.721751544671	1.226452959888
0	12142	11161.353865782054	1.389157331735
0	12145	11163.328724967385	2.451209475792
0	12150	11172.044186148264	1.373588562198
0	12157	11174.661799823953	1.315003598109
0	12160	11176.470903554274	2.225407553456
0	12165	11183.49096607184	1.623239707388
0	12175	11190.773663789663	4.080878737204
0	12180	11201.820839516844	1.55833400283
0	12185	11209.179716740571	1.981540576555
0	12190	11222.463520269501	1.70063949693
0	12197	11225.341074556201	1.989496944845
0	12200	11226.951214166819	3.565435549815
0	12210	11238.972174382276	1.864589437842
0	12220	11251.927872553087	1.762953107432
0	12225	11254.818850026193	1.640264100395
0	12230	11270.43310731042	1.724507965334
0	12235	11275.716456117454	1.368366367556
0	12242	11281.252203571459	1.550383915193
0	12245	11283.215467952786	2.703425730878
0	12260	11289.884052591842	5.368843116327
0	12265	11292.01066514164	1.847632279433
0	12272	11299.520832091325	1.316642548703
0	12277	11301.019264002831	2.253669291997
0	12280	11302.31010325005	2.294094288189
0	12285	11304.747593043074	1.43769059442
0	12290	11307.439661154086	1.227928654663
0	12295	11310.464520754639	1.938211034052
0	12300	11312.787295483335	1.772619152628
0	12312	11321.668140428032	2.452190558821
0	12325	11328.477568124488	1.958687727035
0	12342	11356.506347175362	3.453728824043
0	12345	11357.856209121505	4.894245364517
0	12360	11366.340678444424	7.099234786523
0	12367	11370.814694611567	1.332619722933
0	12370	11372.250621290903	2.128909637307
0	12380	11381.264443231297	3.456384773918
0	12390	11386.813391220005	1.325535476311
0	12395	11389.761346224725	6.122319121508
0	12410	11412.551569920466	2.466911412642
0	12415	11416.3850331921	7.108357549199
0	12422	11423.741763100283	1.925306195579
0	12425	11425.607671136664	2.072641186439
0	12440	11442.090857598159	1.462589219026
0	12445	11449.656162791885	1.358708906174
0	12455	11465.146058566426	1.879914376326
0	12460	11467.528882833932	6.147734823795
0	12465	11474.87355159057	1.778209079057
0	12470	11476.382113062466	1.218284064531
0	12490	11485.114842099634	6.708619785274
0	12495	11489.633990392089	1.376217579655
0	12507	11494.357385379612	1.799246763928
0	12515	11501.53947744512	1.593484139442
0	12520	11505.108893056471	1.45788951572
0	12549	11528.067213471213	3.467973674861
0	12559	11531.670148506367	4.683726946595
0	12562	11533.275449462028	12.033674559969
0	12565	11535.072445000874	8.333813356104
0	12570	11541.243818743674	1.209672939964
0	12575	11558.288250886523	1.733459015004
0	12580	11562.792243858526	1.370794583857
0	12585	11584.935167535849	1.549088116176
0	12590	11587.911137541761	1.669190421514
0	12595	11591.365100227467	1.439307334647
0	12607	11600.40631707582	1.250647195801
0	12619	11606.17289836558	1.492052379996
0	12624	11607.94239237497	2.966668044796
0	12627	11609.720538198411	3.584834733953
0	12632	11611.2983120315	4.895683424585
0	12642	11616.389818129629	5.69843368712
0	12655	11626.231542782905	1.889735569805
0	12660	11633.639364193509	1.745485120825
0	12665	11637.22402761519	1.564923930727
0	12677	11645.381747853769	1.966826708079
0	12682	11647.178767409561	2.725313974857
0	12687	11648.721180921247	3.32731826161
0	12695	11654.217522218105	1.570458301343
0	12707	11660.692147946573	4.86130747579
0	12710	11662.313459221489	3.281939858976
0	12715	11671.620115490707	1.207999320142
0	12720	11679.648771499308	1.96405868493
0	12729	11683.28634550677	1.821567824297
0	12734	11685.076559692	3.188418501965
0	12737	11686.325169433032	3.571937396963
0	12745	11690.225386316215	1.531744247489
0	12759	11697.819942897927	3.632992458726
0	12762	11699.707002149332	3.791822317996
0	12765	11701.223220010098	16.204326863287
0	12789	11711.328935092907	5.928167632249
0	12792	11713.243002235923	8.85607540086
0	12807	11731.602303754979	1.484968505055
0	12814	11733.191246772812	6.840042844868
0	12817	11734.951892922701	2.924790335078
0	12820	11736.938753087515	4.585924460573
0	12830	11742.588393765611	4.260200810127
0	12835	11757.706364913248	1.244584972225
0	12852	11779.109709199066	1.659464146958
0	12855	11780.65224012054	6.126945745414
0	12862	11783.637254107736	1.703686089814
0	12865	11785.123545014478	2.024529700505
0	12872	11792.32171227843	1.739961330593
0	12875	11793.640716211726	2.621126362111
0	12889	11814.311426733526	3.96896812724
0	12895	11817.093722980002	2.887976305528
0	12900	11819.017243371718	5.136153132015
0	12905	11840.568914628883	1.408781988174
0	12919	11864.407759652218	1.914047069661
0	12922	11866.12615510889	3.046158600758
0	12930	11869.289358971386	1.633491745523
0	12935	11876.986333433629	1.742106554843
0	12942	11882.6936570588	1.386230608448
0	12945	11884.087548270772	1.539170673822
0	12950	11888.368227466118	1.545692363754
0	12955	11890.54360078766	1.608706107736
0	12960	11893.946982824286	1.407306386158
0	12977	11901.829997776309	6.770471423664
0	12980	11903.301181899058	1.911035723145
0	12990	11911.119346214974	1.617661789618
0	12997	11913.01168485916	1.788989565894
0	13007	11916.661212839547	3.478243842847
0	13015	11920.184898014541	3.18624055454
0	13020	11925.274318832946	1.844149030745
0	13032	11928.767078113404	3.028168116234
0	13035	11930.019089824741	3.327127702202
0	13040	11934.417095233382	1.496502354741
0	13045	11938.246534427282	1.259496195987
0	13050	11951.559265321584	1.546713213064
0	13055	11963.439015105118	1.280659250915
0	13060	11968.251827811551	1.945615907572
0	13065	11986.264799817077	1.769432937168
0	13070	11993.876287355396	1.93191211652
0	13075	12003.062177152254	1.257807970978
0	13080	12014.400721990703	1.360043170862
0	13090	12026.732349574223	2.984062838565
0	13095	12051.256599277391	1.529101732373
0	13100	12053.128031746988	1.507248408906
0	13115	12069.946679543215	2.687893390853
0	13130	12083.644369610984	4.929070606874
0	13135	12089.912635734994	1.788915432245
0	13140	12091.564204899049	1.357059438154
0	13145	12107.716613460918	1.557162033394
0	13150	12110.129542955747	1.67622107584
0	13160	12122.713730725836	1.581590826437
0	13165	12130.293312638675	1.764513560943
0	13170	12135.486227472213	1.988670185953
0	13175	12139.010142100935	1.552801214904
0	13180	12141.076370133982	1.219358891435
0	13195	12148.949971435594	1.402161683701
0	13205	12158.475404781509	1.428412920609
0	13215	12191.151612650054	3.295081915699
0	13220	12209.687809537527	1.222029019333
0	13235	12223.977383652958	1.729028948396
0	13242	12226.000544762897	1.673512344807
0	13255	12231.734915842885	5.915561765348
0	13262	12233.228266339055	1.446669667773
0	13265	12234.577323011732	2.403754925813
0	13275	12251.164817720604	2.627643395256
0	13294	12258.514637951922	2.145211182861
0	13299	12260.233094145354	7.559480200324
0	13312	12282.067375547402	1.951082259789
0	13315	12283.301947568879	1.539479729052
0	13322	12288.295932111178	1.407436875999
0	13330	12292.771210868238	4.705220501113
0	13342	12301.136461499423	1.316824194044
0	13345	12302.860581531838	2.933827554258
0	13355	12330.938837040306	1.758080811612
0	13360	12344.750726505501	1.743243229017
0	13365	12351.799134035984	1.248762603477
0	13370	12353.57886708587	1.446445020288
0	13377	12359.736430437134	1.98151295688
0	13399	12374.859488507326	2.529290311622
0	13404	12376.299419074658	3.820569035068
0	13407	12377.506301023032	3.218096777419
0	13412	12378.737051711197	7.45806033425
0	13415	12380.648054003867	2.994836410568
0	13420	12385.175618037099	1.998844559491
0	13425	12402.136564989001	1.664479823224
0	13435	12431.901896063663	4.686570541069
0	13440	12439.425821722238	1.759361026436
0	13445	12461.108053122995	1.404057133198
0	13452	12484.395116199437	1.806907650456
0	13457	12486.391968389857	2.177923187615
0	13460	12488.140148944478	2.063930596341
0	13465	12491.369405305616	1.202148671262
0	13475	12497.002287647359	2.282112036825
0	13485	12502.137217179749	3.967821611117
0	13490	12507.23800442272	1.479030031338
0	13497	12509.789512407583	1.663811274804
0	13521	12516.820520108742	7.102331570867
0	13524	12518.287395424386	3.273805400251
0	13534	12521.197619207939	8.737509485132
0	13537	12522.887245099796	7.4735204676
0	13545	12528.659219888042	1.511877267994
0	13550	12531.006600006849	1.552059057541
0	13555	12536.106541267621	1.444893246703
0	13567	12545.250534966274	2.321634132981
0	13570	12547.006112723297	5.3190350499
0	13582	12556.25453458288	1.67262879312
0	13585	12557.951214517739	2.48320324383
0	13604	12574.657753706263	1.734889615327
0	13607	12576.24214118226	2.900876449518
0	13620	12581.458180401684	1.922594723478
0	13625	12605.822341360017	1.621443903074
0	13637	12636.236866029753	7.906507216111
0	13645	12642.19580102631	7.657569762244
0	13650	12644.299193663731	1.358145033941
0	13665	12653.832277195787	1.745059129627
0	13670	12659.480242815767	1.256599210948
0	13675	12664.961254205809	1.331635098346
0	13680	12670.47613987624	1.538677890971
0	13685	12683.795009212667	1.460782736167
0	13690	12687.450026658826	1.529310827143
0	13695	12691.679053531909	1.54386787042
0	13700	12708.88436173101	1.369459900074
0	13727	12728.568706880806	1.654744981974
0	13732	12730.41385052569	2.546627142937
0	13737	12732.194639553798	3.17832426209
0	13740	12733.999194921663	2.575973261032
0	13762	12744.064141011861	4.821345445126
0	13770	12748.443774667997	10.45955937299
0	13780	12755.166521600629	3.286711405126
0	13797	12760.731997562146	5.244051276997
0	13800	12762.034264652191	1.592009076725
0	13807	12769.055965787209	1.964343130216
0	13810	12770.384068761616	3.038298850793
0	13820	12783.414312040469	1.387651470862
0	13825	12786.164568438077	1.667857102863
0	13835	12791.340160179885	3.312697196109
0	13840	12794.570002476834	6.63523735959
0	13845	12798.221967211566	1.256357804313
0	13850	12807.574757707181	1.552882710472
0	13855	12816.546799590715	1.580655280501
0	13875	12830.84672351835	1.522763815417
0	13880	12834.484378802179	1.880752154626
0	13894	12851.096962839504	4.006663010073
0	13897	12852.644223548983	3.086899146726
0	13904	12854.468080251802	4.705798976342
0	13909	12856.029272269409	1.852349819107
0	13912	12857.253774351951	2.873179063878
0	13922	12860.493080207657	2.968207078367
0	13935	12866.879810269995	3.432769490447
0	13945	12883.712757027004	1.226042410545
0	13950	12895.847625807122	1.476562410034
0	13957	12898.680555561965	1.293540921248
0	13969	12902.079599969124	3.309245211572
0	13972	12904.040957981383	5.020627208198
0	13982	12930.499047262581	1.72439766936
0	13985	12932.158004214229	2.27572532556
0	13990	12934.349487942725	1.588591311313
0	13995	12950.355700531648	1.434326296113
0	14005	12957.6003869594	2.678486745998
0	14015	12964.111949415031	9.675293402373
0	14025	12969.511836788868	8.691163583306
0	14030	12986.601242407787	1.349495923333
0	14035	12991.29329355505	1.672175040655
0	14045	13009.164597608283	5.0849254247
0	14050	13011.982645314343	1.869453737885
0	14067	13020.760321303329	8.125617031437
0	14070	13022.305771903193	1.552361317233
0	14087	13042.812723867486	5.153672391921
0	14090	13044.383047514486	6.231624475228
0	14095	13048.396094728908	1.799995844997
0	14100	13053.263106726581	1.878775930218
0	14105	13056.191632264567	1.31887547113
0	14110	13059.61289476956	1.735486754775
0	14124	13074.192395979702	1.924157054536
0	14134	13077.303669395462	2.053312621645
0	14137	13079.287393142075	3.439636811155
0	14145	13083.194361245119	1.233307846263
0	14152	13085.604781169733	1.984856462851
0	14157	13087.108195154099	1.708060521232
0	14167	13090.309305704861	1.474009925332
0	14180	13099.175192435311	1.447471732646
0	14185	13105.78175341601	1.652121123858
0	14195	13118.837954710741	1.880585716106
0	14205	13130.044569849788	2.841198524636
0	14212	13133.479077531499	1.820045534708
0	14225	13146.13413658354	1.516122865863
0	14230	13148.924506127878	1.660786020011
0	14242	13155.13905691213	1.612737380527
0	14245	13156.823460894889	2.753452907442
0	14277	13166.078393949959	3.345693709623
0	14280	13167.47347787192	3.116635665078
0	14285	13168.706815850194	9.402034401521
0	14290	13170.207272247802	10.475536831251
0	14306	13176.070885025355	24.905594307399
0	14321	13181.331915307436	2.652747006657
0	14329	13184.422370394152	1.872311579448
0	14350	13203.20781343621	1.773345161602
0	14355	13204.578570651969	1.24016549699
0	14365	13214.530220903993	3.141351585298
0	14370	13218.513053767876	1.732919851877
0	14375	13224.84589729267	1.516930122674
0	14380	13227.587881722057	1.989072417095
0	14385	13235.633716922665	1.298974421062
0	14397	13242.357332877303	4.003430658929
0	14400	13243.636637515622	1.392015066651
0	14412	13255.873544734812	1.969380552694
0	14415	13257.79717716845	3.344653382257
0	14422	13274.67325680019	1.458263562433
0	14437	13279.205062318135	5.026198264119
0	14440	13280.503533587519	3.818212687597
0	14445	13292.349404420921	1.669761090912
0	14450	13309.142084982227	1.454071481526
0	14455	13315.379938839967	1.984680974483
0	14460	13339.258039459813	1.885008729249
0	14467	13351.341285291427	1.437804920226
0	14470	13352.848077358418	2.769866423913
0	14480	13376.939804557643	1.900705999136
0	14485	13387.149016962099	1.235787650384
0	14494	13391.104290324943	1.830898938514
0	14499	13392.987274909885	2.052094069428
0	14504	13394.926020939396	3.811935928871
0	14507	13396.707165002757	2.531467296732
0	14517	13400.262348836967	2.400530213048
0	14530	13412.410712400174	1.285668399185
0	14539	13421.086272754151	1.590091094747
0	14542	13422.795669962655	2.979953141851
0	14550	13431.480460886971	1.829654236697
0	14562	13471.449588256031	1.79603369385
0	14565	13472.864242890365	2.991763188184
0	14570	13476.608821401911	1.42022723332
0	14607	13508.136247857098	2.447587465766
0	14612	13510.09601610731	3.000092628368
0	14617	13511.761334178407	6.79131255839
0	14625	13515.632541891034	4.591090777931
0	14630	13518.0974797724	1.343293597363
0	14635	13530.225505160455	1.82153374739
0	14642	13536.746298910594	1.602285262942
0	14645	13538.609786711736	2.950931534921
0	14650	13542.582026965635	1.676428856328
0	14655	13546.171233921697	1.875431949832
0	14660	13570.809000335988	1.233552066796
0	14665	13572.35609344089	1.380378136225
0	14690	13589.261312755475	1.307887798361
0	14695	13592.57777490336	6.973224486363
0	14705	13599.574468641321	3.720051705371
0	14717	13603.231190738158	3.134390137584
0	14730	13610.599041255523	1.906396259672
0	14740	13616.746430240314	1.484583766386
0	14757	13623.991538716265	3.518750611295
0	14772	13631.690421718268	3.807734944543
0	14775	13632.914279753065	1.42400253866
0	14780	13653.078660412695	1.896677030809
0	14789	13666.864780818116	1.653827955388
0	14799	13669.961281933639	3.445466006961
0	14802	13671.433281281967	6.056889834964
0	14805	13673.199424529638	3.593882542687
0	14810	13678.413089001744	1.678847398236
0	14819	13683.643961755083	1.755361477658
0	14822	13685.284256907449	1.678504130633
0	14845	13721.035387529909	1.393848031387
0	14850	13732.898913737885	1.756002262607
0	14864	13737.28641621389	1.498317550495
0	14867	13738.508343494614	5.053542404704
0	14870	13740.320321711642	3.456757578895
0	14897	13751.410179809164	1.470296643674
0	14900	13752.938117045406	10.403019041331
0	14905	13760.704547913656	1.865722881258
0	14910	13772.103508202978	1.433106677607
0	14917	13781.420411063024	1.374105440266
0	14920	13783.391594006346	2.412690681075
0	14940	13795.964580647615	9.168887031291
0	14945	13801.608857068882	1.375087261945
0	14960	13816.065514985943	8.775266888108
0	14972	13826.589997716932	1.670985609293
0	14975	13828.153838282576	3.20840769933
0	14980	13832.901327398567	1.296323357522
0	14990	13842.491350435595	1.436538812146
0	14997	13853.824491203324	1.628875209391
0	15000	13855.720206158356	2.912873123987
0	15005	13867.158210571523	1.253714596666
0	15010	13873.162944761626	1.575875139423
0	15015	13875.486096640669	1.420055728965
0	15025	13881.400041616212	1.915775330737
0	15030	13883.974168992732	6.66545434725
0	15040	13889.688344383204	1.418185613118
0	15050	13911.085336344045	10.416648172778
0	15065	13932.548167788933	1.938073367253
0	15070	13936.532365820007	1.548139889538
0	15077	13945.16106463348	1.641149717942
0	15092	13953.386296490279	1.91093513146
0	15107	13960.94112084258	16.838533174772
0	15110	13962.764788174551	1.915842522721
0	15127	13980.130257592506	2.05736968513
0	15130	13982.119797375954	6.467955433855
0	15135	13985.388308773918	1.89889180176
0	15140	13987.052229026346	1.559950293601
0	15145	13996.546513176883	1.951092638075
0	15150	14005.548573257976	1.543892402388
0	15155	14008.31078096857	1.91087282896
0	15160	14011.837615196587	1.611205214821
0	15165	14014.454391126059	1.96804420352
0	15175	14023.941675141602	1.700631050766
0	15180	14062.449265049136	1.855049983039
0	15207	14121.15065593195	2.861258151667
0	15210	14122.441340192192	6.339789000933
0	15215	14128.709175668605	1.967031416669
0	15220	14131.438849360301	1.740398097783
0	15225	14142.801668130837	1.294176312163
0	15230	14150.987628186556	1.859551884793
0	15247	14159.29867079669	1.861081149988
0	15250	14160.859508427431	1.589207953827
0	15255	14167.496496764543	1.701747915521
0	15260	14182.568671041749	1.56428370364
0	15267	14184.638409971103	1.304866899922
0	15272	14186.584011196747	2.824481699783
0	15277	14188.564353179216	3.869369394677
0	15287	14208.748985512149	1.594559894688
0	15290	14210.469255913575	2.772485693034
0	15307	14215.70571847567	4.344324348041
0	15315	14219.478623644725	3.089056617403
0	15325	14227.073548002183	1.380575217493
0	15342	14237.740021239184	3.383435945165
0	15345	14239.277791228295	2.01925352135
0	15355	14250.452207144414	3.338154922179
0	15360	14252.793525115332	1.443415439688
0	15375	14271.291323782047	9.69457265533
0	15382	14296.953664624676	1.281677674688
0	15395	14307.543534986741	11.221929280185
0	15415	14319.867380040961	1.966136170672
0	15427	14336.099468133017	1.738380878866
0	15435	14356.683845748841	1.506628229097
0	15440	14363.906778031471	1.439220812544
0	15465	14384.655836650889	1.419937517121
0	15475	14394.360183956557	1.741573057696
0	15482	14404.832591772248	1.469671979733
0	15485	14406.564855122735	2.639876430926
0	15492	14409.327524927671	1.534244138375
0	15495	14410.723717147897	1.534795502626
0	15502	14412.286955945638	1.456126715057
0	15505	14413.603215998669	1.339567705103
0	15510	14418.774527211921	1.935611253418
0	15515	14424.239617350553	1.909849700145
0	15525	14467.659286668335	1.253998443484
0	15530	14474.47765029384	1.405852175131
0	15535	14479.668499617603	1.597152937017
0	15540	14493.709285240465	1.56796567589
0	15555	14505.799569003841	5.463418425817
0	15567	14532.990378682844	2.91683805966
0	15572	14534.863835879385	4.824363271706
0	15575	14536.51229574994	3.488243836968
0	15585	14541.471577514938	2.493924000648
0	15592	14550.816781968483	1.207971088961
0	15600	14557.978333489755	1.419723883271
0	15605	14567.82010718979	1.780643410608
0	15610	14577.907653757648	1.593768103793
0	15615	14583.909581971018	1.837817123719
0	15620	14588.077799218465	1.992073383741
0	15625	14596.662474434789	1.415907565318
0	15630	14607.858058206203	1.532151157409
0	15637	14612.205490164044	1.26094816383
0	15640	14614.180491142864	2.864458006362
0	15647	14617.113322830476	1.618171596155
0	15655	14621.134821617904	5.165131752132
0	15660	14631.443686099849	1.709531324916
0	15680	14639.895246055416	5.259450012672
0	15687	14647.163871660857	1.925884089805
0	15700	14655.467323828486	9.185232293862
0	15710	14669.950780874784	5.889702099765
0	15717	14683.478917264241	1.572686658613
0	15731	14686.330299803662	1.900305883133
0	15734	14687.93361343206	5.601231739893
0	15737	14689.255168153766	4.058526818779
0	15745	14699.161850303273	1.516843429208
0	15750	14704.085955689	1.883409208432
0	15755	14712.867596443488	1.781910241209
0	15760	14724.774361202205	1.271703024954
0	15765	14731.537448155565	1.863959610835
0	15774	14733.990431553494	1.558719116822
0	15777	14735.601714602668	2.987758591243
0	15780	14736.910226852629	3.179848338962
0	15785	14751.854583036556	1.705734169297
0	15790	14756.664843353323	1.826793793403
0	15795	14764.286355514176	1.710582426935
0	15800	14766.679546450419	1.608167620748
0	15805	14769.101469037218	1.737291216664
0	15812	14773.263702367202	1.725209253281
0	15815	14774.810928336301	2.997010032225
0	15822	14778.506807543492	1.919538071379
0	15825	14780.197220868027	3.210139026611
0	15832	14782.68980223719	1.724041892588
0	15837	14784.371195488199	2.488773726154
0	15845	14788.01381573093	5.075369804049
0	15850	14797.889261256045	1.900256112218
0	15857	14808.664784880999	1.818278073892
0	15862	14810.548378295537	3.656920964955
0	15875	14819.27002241397	10.083789034456
0	15889	14839.771739991365	2.736219289888
0	15892	14841.10179529505	4.688211247511
0	15900	14844.728732390312	3.165538468837
0	15910	14874.434775857399	1.620786130801
0	15917	14876.353972998256	1.503258709051
0	15920	14877.899198270211	1.700075991308
0	15927	14879.795017600024	1.490286515094
0	15935	14883.465587615872	1.556805262342
0	15940	14888.285493555693	1.295886354521
0	15950	14893.056951047167	2.265331853386
0	15955	14896.496871050632	6.915116514205
0	15970	14904.788054331057	3.955139858434
0	15975	14909.554367873495	1.76455710195
0	15982	14915.083881468531	1.52960455399
0	15987	14916.737505575847	2.80634207578
0	15992	14918.244685327653	2.946785761294
0	15995	14919.575400835667	1.447159875411
0	16004	14928.480464080301	1.466490137391
0	16007	14930.036615652171	2.160313776363
0	16012	14931.244980257143	2.981487292306
0	16015	14932.897749624726	2.807030896199
0	16030	14954.188006168034	5.958920798465
0	16035	14955.88157679029	1.228361010365
0	16040	14961.124249472635	1.44280760847
0	16045	14994.883215730088	1.420643010549
0	16064	15006.106225113475	1.97587360777
0	16067	15007.792840681316	8.42447876053
0	16072	15009.36071816338	3.55057351235
0	16080	15012.295173889489	1.324036566623
0	16087	15023.441836993916	1.379589454643
0	16092	15024.82825346194	2.262579813858
0	16100	15036.187555400516	1.942704598233
0	16110	15042.503417297127	3.118728309914
0	16119	15048.179797955781	1.819420338236
0	16126	15049.530795219719	1.915212310807
0	16129	15050.897850808121	3.113594935858
0	16132	15052.840808218524	3.98568528973
0	16146	15079.962421969463	1.991286757775
0	16149	15081.800746518698	3.535954110935
0	16154	15083.072863578376	3.357969962615
0	16157	15084.800358194065	2.436911605156
0	16165	15107.407300921845	1.951177220792
0	16170	15113.789964978639	1.852887305431
0	16179	15123.093978124166	1.725695847906
0	16184	15124.745781811195	2.506456783084
0	16187	15126.171839821393	3.261519948374
0	16195	15144.071107284948	1.654836363718
0	16214	15158.026520772269	3.043813682078
0	16219	15159.935878901547	7.97825015347
0	16222	15161.289927323153	3.194333934074
0	16232	15164.867576985797	3.221533375754
0	16235	15166.117864457136	1.88789278914
0	16247	15171.975523249877	2.426358403593
0	16255	15178.29277232833	10.018606719151
0	16260	15183.028108434609	1.323315787315
0	16265	15192.981812939777	1.90029022526
0	16270	15200.194976927108	1.936183961295
0	16292	15211.25850474498	5.249050574933
0	16310	15221.630039535539	5.142295741406
0	16319	15231.09680657624	1.530039846525
0	16322	15233.033960580777	2.621219734264
0	16325	15234.843274709906	3.993553219007
0	16335	15250.936345418177	1.820500943065
0	16345	15257.799652686279	5.520884506488
0	16350	15276.372247839118	1.538122661225
0	16367	15301.458315223573	1.425999134965
0	16377	15306.225079623043	5.788810746774
0	16385	15313.022164612706	1.279870021157
0	16397	15323.342235090854	1.783798729256
0	16404	15325.313015375929	3.605560546044
0	16407	15326.893835721621	3.12573630379
0	16410	15328.175849611954	4.388480812348
0	16420	15344.655755716291	5.932235755653
0	16427	15354.963753426194	1.558595839143
0	16430	15356.685018581644	2.471217520669
0	16437	15377.272281419156	1.894598284923
0	16440	15378.615187767377	1.423777802295
0	16445	15401.450365447304	1.645054083876
0	16450	15405.820731440868	1.617247846164
0	16455	15416.885534390751	1.658967444673
0	16470	15425.208275375671	1.436728610843
0	16480	15444.874858819227	1.338448401168
0	16485	15451.8310263859	1.951687498949
0	16492	15455.346072762811	1.939193506353
0	16495	15456.653678973929	1.378865234168
0	16500	15461.130823173765	1.687081475742
0	16515	15473.556516801492	1.736389120854
0	16522	15476.532653808995	1.513065529056
0	16530	15479.753763581096	2.581670915896
0	16542	15483.94980372489	1.49434931539
0	16560	15498.960622656525	1.805709365383
0	16574	15510.949944073531	2.706809535589
0	16591	15515.285476365695	7.987391009367
0	16594	15516.859319811883	4.551487747118
0	16604	15519.603714976656	9.396299699713
0	16607	15521.225373754847	3.896173197399
0	16624	15527.985291870131	3.149423544737
0	16627	15529.907122930518	4.976870086073
0	16637	15533.652835682041	25.110764909648
0	16647	15537.622352922055	19.662520052645
0	16662	15543.686331655577	1.660621224133
0	16665	15545.016196108543	8.540544517168
0	16670	15549.204509486518	8.332572433121
0	16675	15552.433002828786	1.880781399086
0	16685	15556.251243830816	2.051799118726
0	16690	15560.911302310559	1.484029688314
0	16712	15575.64089838257	2.573740553896
0	16730	15585.434406267102	6.519791497321
0	16740	15591.390959166332	2.586229044875
0	16750	15604.203144297835	1.278330671042
0	16755	15609.791855392662	1.227476301417
0	16760	15611.745851662898	1.360486501642
0	16772	15615.285976996918	2.88367102558
0	16775	15616.996198662271	5.122984057665
0	16780	15621.9686396438	1.935875070095
0	16785	15626.342340415629	1.642921884917
0	16802	15648.60968040239	3.178317819269
0	16805	15650.262738128863	3.343743791259
0	16810	15655.07467420041	1.221037813835
0	16815	15658.797466913965	1.757521330193
0	16840	15669.994479058368	3.742545607708
0	16852	15673.836936627749	3.037930884369
0	16857	15675.594278115641	3.764288335626
0	16867	15680.901940824115	5.373711592791
0	16870	15682.517872444936	3.215528236117
0	16882	15686.353478184268	1.589767965674
0	16885	15688.34097849235	5.719795271601
0	16890	15691.812956663828	1.63121178858
0	16900	15695.777516702763	2.106293257131
0	16905	15697.647529788126	5.374430973438
0	16922	15709.959817289637	1.897989323736
0	16925	15711.255969821738	4.358809711412
0	16930	15724.195495505445	1.829754912294
0	16940	15740.534119326812	1.951213656925
0	16945	15746.435734527446	1.454865758307
0	16950	15756.004178769495	1.920858935453
0	16972	15767.475939912832	3.135137499438
0	16982	15770.488321307971	11.294401503246
0	17002	15777.738446812307	12.360487575969
0	17007	15779.207216073175	15.612424115518
0	17010	15780.848675055963	2.021491466105
0	17032	15795.32349513554	2.120343786391
0	17037	15797.052034185352	1.840988600196
0	17050	15804.241251835507	1.946192750148
0	17060	15819.188387956357	1.281194142811
0	17075	15831.272929557765	1.433728889562
0	17080	15834.246316136128	1.687341615558
0	17085	15841.015618065839	1.555493994802
0	17094	15849.199066010475	1.829508405365
0	17112	15855.927720527149	2.867115284065
0	17120	15859.895195068425	11.376045171501
0	17130	15864.818741706389	3.874510030305
0	17141	15873.793974226447	1.761852457374
0	17148	15875.465485898325	2.912477064975
0	17151	15877.361799426669	2.178644070032
0	17158	15879.019662873739	3.685310981837
0	17161	15880.520033414395	2.730673462706
0	17164	15882.343947766827	3.611533748625
0	17179	15887.248478329474	3.088470113637
0	17192	15892.043829531701	7.574302593166
0	17205	15928.38973648106	1.915587238222
0	17212	15933.646197866877	1.64681223575
0	17215	15934.996397369025	2.681553859557
0	17220	15941.235703289111	1.877682003006
0	17232	15952.652203042931	2.07117719328
0	17235	15953.950153296194	4.401878292486
0	17240	15962.497879143334	1.970226050541
0	17280	16009.142585245836	6.277134463658
0	17287	16011.514169574503	7.339261076388
0	17295	16015.39812480871	4.285715756514
0	17309	16035.755940756467	1.582285390049
0	17327	16041.774756776806	3.710201029241
0	17332	16043.603729625497	7.957208924524
0	17335	16044.8294847329	1.462462525968
0	17345	16050.48033742965	4.416983516809
0	17350	16054.971777266093	1.2856996933
0	17355	16057.368124461563	1.317265044339
0	17360	16059.929434397973	1.774223811179
0	17365	16063.201422225016	1.982924862765
0	17370	16066.212630231667	1.61443602629
0	17384	16083.873295396626	1.311831680313
0	17387	16085.081781423524	1.687801225872
0	17400	16090.621617640405	6.98951980527
0	17410	16103.33555280174	5.564858581005
0	17422	16113.73055761055	1.250635550171
0	17425	16115.582303417929	8.118179623251
0	17430	16153.276781187852	1.45451013986
0	17439	16160.732733889979	1.889329655468
0	17442	16162.022918024783	2.94709884129
0	17445	16163.282432397579	3.865040201648
0	17455	16172.738638205211	1.374350312911
0	17460	16176.360862992043	1.31179558076
0	17472	16189.417289266035	1.859659912623
0	17475	16191.377198017992	3.480228202932
0	17490	16213.062682309394	6.397865559741
0	17495	16239.940467495603	1.483794229105
0	17500	16244.374347628592	1.275649118423
0	17507	16246.62012361997	1.738262422755
0	17510	16247.84712334444	2.304903143809
0	17525	16262.997099733962	1.721205694042
0	17535	16277.574460603712	1.412422530167
0	17540	16288.781006105628	1.421076386981
0	17550	16298.373808088669	2.381507208086
0	17560	16310.751258193005	1.900752382216
0	17565	16315.825448490451	1.779939339124
0	17570	16321.556170972101	1.624406629615
0	17589	16327.953899607688	2.845737367337
0	17596	16329.730579756453	4.248382885266
0	17615	16351.0680715678	1.280321809091
0	17627	16361.394344422067	1.557334357873
0	17630	16363.346331164087	5.687674653774
0	17640	16378.488594702137	1.361477951147
0	17645	16388.713717697374	1.593107070215
0	17652	16395.412671276416	1.907433054969
0	17655	16397.184619432922	2.053487831375
0	17670	16407.005495845469	6.788809148095
0	17675	16420.423175261843	1.305470003188
0	17680	16426.565374553734	1.571793051623
0	17692	16431.561637591761	3.035016082054
0	17695	16433.00255655684	2.755470755667
0	17702	16436.379212097687	1.340276879817
0	17710	16440.419641050811	1.232090381905
0	17720	16449.730264217064	3.228157850487
0	17732	16473.777520133209	1.423931628466
0	17735	16475.2433979139	1.812012226482
0	17740	16477.5333402548	1.668120533228
0	17745	16492.836793425192	1.648332838155
0	17755	16499.998362429468	1.274966094829
0	17770	16536.261732170917	4.180660116043
0	17777	16540.504594777113	1.224399932101
0	17780	16542.006499696484	2.143920963049
0	17790	16553.677380182915	3.501651385477
0	17795	16565.625208066946	1.75087838266
0	17825	16589.781286740773	1.764102191851
0	17837	16609.428093636075	2.231760825281
0	17840	16610.670672133045	4.102406011708
0	17845	16613.693755137829	1.351100961864
0	17865	16652.791456421564	1.752454167604
0	17870	16654.579863822121	1.325234411098
0	17882	16668.264946095507	1.412993220426
0	17885	16669.547393156077	4.654723216074
0	17890	16681.015352928698	1.314555333741
0	17895	16686.35899062261	1.591784829646
0	17915	16719.058900288646	4.010944105688
0	17925	16723.668616856009	3.357588267675
0	17942	16736.128530141874	2.256372606244
0	17945	16737.676676753699	6.664786874875
0	17950	16743.419440055599	1.229596545175
0	17955	16746.379432749744	1.683628368564
0	17960	16768.883718848329	1.453340723366
0	17965	16788.030089753069	1.202409888245
0	17970	16791.406707719294	1.858116023056
0	17975	16795.490260695739	1.201670137793
0	17980	16806.949239054617	1.716149089299
0	17994	16810.908798154646	3.214157569408
0	18010	16817.540113549137	7.187495439578
0	18017	16820.038068370522	1.948850484751
0	18030	16825.437794299999	15.586935616663
0	18052	16833.439607413905	5.575785517482
0	18057	16834.76308546518	4.381238442287
0	18065	16859.354162732815	1.221068838052
0	18072	16862.933508488186	1.525883144885
0	18075	16864.370879754633	2.557795202611
0	18085	16891.576359989913	2.884382021448
0	18090	16895.740490094339	7.113994523231
0	18095	16898.622886205736	1.270297545008
0	18102	16906.700286395723	1.860951330513
0	18105	16908.314117766978	2.542988035687
0	18132	16923.847481106244	7.253478057915
0	18135	16925.131474253371	1.816855189758
0	18147	16937.53757162439	3.967365474842
0	18155	16941.702184512903	4.826545379851
0	18160	16949.57237480624	1.277269435301
0	18165	16951.490518599026	1.854703841917
0	18179	16983.132975627751	1.263462080248
0	18182	16985.129136973143	2.881395737498
0	18210	17031.399001668179	6.586275262417
0	18215	17060.435444775664	1.665665965155
0	18225	17082.805676461417	5.384698062625
0	18242	17090.244678836387	4.471286257485
0	18247	17091.936534975354	3.04668369449
0	18259	17094.857866355662	7.816021669284
0	18262	17096.450750311908	3.660701135817
0	18275	17104.683780432141	1.772546239197
0	18280	17122.197176700374	1.77276863493
0	18297	17131.648932778696	7.894901157314
0	18307	17134.696131683411	3.168506816432
0	18310	17136.049311235817	1.743844043198
0	18320	17141.40624824761	1.855864716718
0	18325	17145.121755194403	6.272941750041
0	18332	17165.0789291969	1.673672528565
0	18337	17166.520754440172	1.965560331523
0	18340	17168.338917840502	1.897330137063
0	18347	17175.8853130257	1.748755869828
0	18350	17177.187944481919	1.882213493327
0	18366	17184.081484029703	1.446812318824
0	18369	17185.626194691733	6.31000299147
0	18377	17188.842464281693	2.257536637352
0	18390	17194.310435711471	4.010016612703
0	18395	17199.545009304038	1.539619938843
0	18400	17202.201788179936	1.663681383058
0	18405	17212.658207630785	1.65095306579
0	18415	17221.156217454056	4.456369106459
0	18445	17252.896837235911	2.58451378601
0	18450	17254.996908479429	1.765762270801
0	18462	17263.062618349708	3.053286993813
0	18465	17264.289128754131	2.777498379275
0	18477	17283.85834892303	1.63223333098
0	18480	17285.25849916734	2.238502563934
0	18492	17296.327445961983	2.802906624317
0	18507	17301.42452619165	2.777490084674
0	18516	17303.326719162574	4.986594357155
0	18555	17362.040601350104	1.891694970801
0	18562	17366.681807110594	1.247360431962
0	18565	17368.101284372942	2.525048674795
0	18570	17371.345184029347	1.663915852457
0	18575	17377.242980640763	1.716181560792
0	18582	17383.114947313238	1.740318435989
0	18587	17384.484549590554	2.782200492294
0	18595	17387.892905378961	4.536281700951
0	18605	17394.906165236187	2.349425407961
0	18621	17399.41220272163	2.566891648846
0	18624	17400.907440926489	3.388701618537
0	18627	17402.723223830741	11.431723428175
0	18644	17415.214651726738	1.419600456767
0	18647	17416.617418818169	2.36161437968
0	18657	17420.190828851232	1.826307461474
0	18665	17424.470430358131	1.784864843637
0	18672	17427.01971922945	1.951206286438
0	18680	17430.807728170736	1.747731225565
0	18690	17443.896976654988	1.34133425951
0	18695	17449.158907260943	1.322950618528
0	18705	17456.325840882374	3.927026869275
0	18710	17460.956791405326	1.918158491142
0	18717	17472.698394900634	1.939757921547
0	18729	17476.488313215672	2.486155082197
0	18732	17477.875207693203	2.799552444445
0	18740	17482.356678476673	11.315098186719
0	18745	17486.981120502834	1.253483787179
0	18752	17511.089912243941	1.72685642913
0	18755	17512.522911266432	2.690669793327
0	18790	17559.324702380097	1.494486714154
0	18795	17561.562921659288	1.408158434927
0	18807	17575.345723196849	4.553773445433
0	18810	17577.314502168432	2.69186006354
0	18815	17599.173639892451	1.524896149524
0	18835	17621.477808492801	1.280334176309
0	18845	17636.059444780184	3.264609085679
0	18850	17640.034366329041	1.58301268965
0	18862	17647.905662367795	1.653708104417
0	18865	17649.715322218579	4.977599297832
0	18870	17655.481790956082	1.867557366006
0	18875	17665.007253589388	1.393035678007
0	18887	17681.472758063375	2.077467061804
0	18905	17710.154095391691	1.875776400417
0	18910	17713.517885913193	1.32447464969
0	18927	17729.959860127201	1.575268418901
0	18940	17744.679111456573	1.81206299762
0	18950	17750.017567739694	1.968044474162
0	18955	17752.033862895495	10.400436693518
0	18962	17755.589275802868	1.430836680904
0	18967	17756.95465312061	2.065532003928
0	18977	17760.791926066029	2.773080063196
0	18980	17762.011673425707	5.937490041674
0	18992	17768.207022953603	3.999973091154
0	18995	17769.979126260813	2.498380286556
0	19002	17778.067951851159	1.925985756703
0	19007	17779.433264021955	1.549068969269
0	19015	17783.100416909381	4.423828189482
0	19025	17792.957987059359	4.814137063834
0	19045	17805.3743631042	1.788368562981
0	19050	17810.512807377744	1.71331485603
0	19060	17831.800934767112	1.900722280331
0	19070	17848.397278332694	1.953599007055
0	19077	17850.473166044543	1.234183744155
0	19080	17851.890761637802	2.165966167859
0	19095	17863.27915165924	6.607586333251
0	19110	17883.673385632863	1.43028381709
0	19115	17886.010717652197	1.678346850537
0	19120	17890.030672458985	1.580061856471
0	19125	17894.764838129246	1.968246502616
0	19145	17901.564334118882	6.341450494535
0	19150	17905.762699018247	1.298968154564
0	19155	17911.847006393047	1.692569880746
0	19162	17921.065351457298	1.911639484204
0	19177	17926.647807581764	1.61146054361
0	19180	17928.552890430991	5.147690810636
0	19185	17932.014705560921	1.93552582413
0	19190	17939.990923676977	1.787551733665
0	19204	17956.657625180902	3.816826926569
0	19207	17958.10830896073	3.281542940873
0	19210	17959.676506920019	3.983084329092
0	19220	17965.306005095815	3.579172565542
0	19225	17978.278995720805	1.746566545963
0	19242	17995.639490215593	5.142773327262
0	19245	17997.624706928731	2.020154531612
0	19260	18006.963664428612	5.134193485694
0	19265	18011.780263651364	1.811896728724
0	19270	18021.675096694232	1.416245708801
0	19280	18044.763276702005	1.575179964863
0	19287	18046.598574056007	1.40188819468
0	19305	18059.936141313609	1.498114363477
0	19317	18074.701119135785	1.967361202091
0	19320	18076.618311374168	2.289392329531
0	19327	18078.571366934383	1.695638326369
0	19332	18080.286072168776	2.796633756114
0	19335	18081.688324323946	1.694801483937
0	19340	18087.310163090867	1.568419942074
0	19347	18090.495681205664	1.309603896551
0	19364	18119.85307779611	3.326386164056
0	19369	18121.730927266189	2.111519744289
0	19372	18123.34536357467	6.927310814709
0	19387	18140.090352445133	2.75729882856
0	19390	18141.800627751127	4.59223789908
0	19402	18151.029365089925	6.700957066904
0	19407	18152.615292450616	2.801825614081
0	19410	18154.195664137246	2.917033636221
0	19415	18166.804716216505	1.206323530711
0	19425	18182.720564084181	4.831328223089
0	19440	18197.751238303189	1.233180219121
0	19445	18202.325864792775	1.579118202999
0	19457	18214.506217795552	1.598950894922
0	19460	18215.947999253066	2.773769986659
0	19465	18220.829921672732	1.713881087303
0	19470	18223.508027629735	1.804591893405
0	19477	18225.52454180881	1.266973505542
0	19480	18227.13451993126	1.667481257855
0	19490	18236.306990386925	1.912579399161
0	19495	18242.361394553012	1.421352934837
0	19500	18253.296619356079	1.584031652845
0	19505	18256.069297157215	1.373616637848
0	19515	18271.291049409603	1.877101260424
0	19520	18282.48799794754	1.951475656964
0	19545	18302.214566753496	6.137230846338
0	19555	18311.248958389712	2.636603732635
0	19572	18329.496679785288	2.351853509455
0	19575	18331.165608329884	9.022206517494
0	19587	18335.065462429868	1.762284635242
0	19592	18336.319767463999	1.816311270204
0	19595	18338.120234178053	2.553460728277
0	19605	18345.049163733541	3.674293850649
0	19610	18349.181271612586	1.734649943374
0	19617	18360.077686002942	1.396122118644
0	19625	18364.644261399268	5.785260544136
0	19630	18368.788068727571	1.52209767662
0	19642	18401.886292760238	1.524194919504
0	19645	18403.317860455044	2.882913678329
0	19670	18420.070945641612	12.713768167154
0	19675	18424.622107957972	1.395215633698
0	19690	18447.792507875628	2.7848458709
0	19695	18457.362702132901	1.321687986143
0	19712	18487.329646666532	1.879133994505
0	19717	18489.150602054594	3.098866911177
0	19720	18490.413564848898	2.284084161581
0	19725	18498.345834385509	1.678218292631
0	19730	18509.476883126589	1.228584831394
0	19735	18520.012351859996	1.305074023455
0	19740	18525.082596394133	1.716232708842
0	19745	18531.048746911713	1.346232204884
0	19750	18551.31059576618	1.999127893522
0	19760	18559.047846830074	1.962838100828
0	19765	18572.780193822283	1.710810866207
0	19770	18576.929868901051	1.353167457134
0	19777	18604.644650722396	1.407537240908
0	19780	18606.018641240623	2.343089851177
0	19785	18607.702649139255	1.623367314413
0	19790	18613.786039848585	1.626157518476
0	19795	18623.802388333895	1.689570189081
0	19800	18626.78410028044	1.284471914545
0	19805	18629.405389957652	1.685684472136
0	19810	18631.013882783793	1.310806647129
0	19820	18658.016729524617	1.945496593229
0	19832	18661.477750754372	2.202203481552
0	19835	18663.155775360965	2.154693307202
0	19840	18665.344159259902	1.76624897439
0	19845	18671.430420253531	1.368816555664
0	19850	18687.09116232848	1.380348356813
0	19865	18699.156190494521	3.832214826858
0	19875	18702.115695972104	2.79652405618
0	19895	18729.901047861549	1.771131111309
0	19900	18736.179357020859	1.614644141868
0	19907	18757.525385274559	1.951761957817
0	19917	18764.610518277748	1.73269623667
0	19925	18771.661326372847	1.597382530198
0	19930	18789.231531081329	1.902106152289
0	19935	18793.248944871481	1.456324265525
0	19940	18800.690014136728	1.335336278751
0	19952	18828.511358839383	1.86627981551
0	19955	18830.079741389973	3.35912796787
0	19960	18840.824103969293	1.330731805786
0	19965	18842.858639839197	1.875010558031
0	19970	18849.933223697439	1.323635917343
0	19975	18853.59572676767	1.758675738983
0	19990	18868.785835298901	1.954430437461
0	19995	18893.008688003704	1.593042269163
0	20000	18897.212589174991	1.490522698499
0	20010	18907.995374867973	1.270138199441
0	20015	18909.749724937859	1.34417482689
0	20020	18919.953502951937	1.573604338616
0	20025	18927.797847388922	1.250129058957
0	20035	18941.206785117186	1.550234930031
0	20040	18954.598486155393	1.710487960652
0	20045	18960.885976393255	1.369167433679
0	20055	18987.668869546083	1.618526894785
0	20060	18989.688562064637	1.839868073538
0	20067	18993.620581419342	1.438576725684
0	20072	18995.537846063771	2.614788060962
0	20082	18998.618831060962	2.854815816296
0	20087	18999.892185335742	5.450890981167
0	20092	19001.37076091575	2.092529172319
0	20095	19003.234241864966	2.210026832013
0	20110	19021.13101928833	1.393496543169
0	20125	19029.357865090513	2.439967121802
0	20140	19045.612993487733	1.715120949969
0	20147	19079.546273118661	1.696259345673
0	20150	19081.25628150835	2.830279026061
0	20155	19093.628936435306	1.796981101297
0	20160	19097.190233492059	1.577163250372
0	20165	19101.746694775604	1.971595436893
0	20172	19118.719216535698	1.750844049826
0	20177	19120.293487595666	3.148341440007
0	20180	19122.191243788872	3.141819206265
0	20185	19127.077955116842	1.559963811934
0	20190	19143.199025596217	1.35049852673
0	20205	19155.07775985449	5.420371171288
0	20215	19195.44146770599	1.772028620541
0	20220	19204.336562289706	1.909680335037
0	20230	19208.089490207956	3.225192344298
0	20248	19213.415097368359	3.238271090924
0	20251	19215.201994121298	3.964603684089
0	20254	19217.011708325557	6.863728085533
0	20259	19218.844349304623	6.969254307123
0	20262	19220.763809676505	8.816799643858
0	20270	19224.507032810712	7.181343168869
0	20290	19238.844083829569	3.293073972423
0	20300	19245.133299914403	3.439750987269
0	20305	19247.46269791772	1.560835808143
0	20310	19260.075146739001	1.954738561437
0	20315	19262.189735130823	1.424570275284
0	20325	19271.265553953569	3.70645884353
0	20332	19280.882286472796	1.276317616366
0	20335	19282.587918703435	2.495349260759
0	20340	19295.969878722444	1.826956474595
0	20345	19299.772780087738	1.784178413637
0	20352	19311.08841756992	1.402343829349
0	20370	19338.225025152124	1.858616522886
0	20375	19343.095267391905	1.316237515397
0	20380	19355.953909723511	1.348609975725
0	20387	19377.543417757086	1.586321683787
0	20390	19379.173914364807	2.617295620969
0	20397	19387.877706741523	1.948498148285
0	20400	19389.173529501986	2.948953649209
0	20410	19397.76855879975	1.856006562524
0	20415	19399.907649348252	1.884575604834
0	20422	19402.107492307062	1.665084255859
0	20425	19403.622776160995	2.310266166904
0	20435	19408.517349209559	4.403977903062
0	20440	19421.708298197239	1.626363258623
0	20450	19428.502929471128	1.946506643482
0	20460	19439.412351403538	3.488038171302
0	20465	19445.051885343251	1.4100081807
0	20470	19453.651569509103	1.76070082169
0	20480	19471.652878980258	1.456764962897
0	20485	19480.493381930095	1.388262875378
0	20490	19484.646036712457	1.481169668771
0	20500	19496.447572407783	6.242962226669
0	20505	19500.679463435983	1.968571735546
0	20515	19505.427400204673	2.117576981373
0	20545	19522.689185059692	7.374396466521
0	20557	19532.036104690236	1.484065661207
0	20560	19533.544573177722	2.333003702455
0	20575	19565.15704191431	1.514899405092
0	20580	19573.49144377835	1.395916310139
0	20590	19579.063638214722	4.89158959662
0	20605	19594.915626114775	1.81067337282
0	20612	19599.610487471938	1.933448291197
0	20615	19601.569267873138	2.534028529689
0	20629	19606.75930272427	2.155058400274
0	20641	19610.240219686298	2.316640880023
0	20644	19612.106660563058	4.14884444661
0	20647	19613.922800819135	7.79491234272
0	20657	19626.246492583983	1.944254906476
0	20660	19627.568638877504	2.957127089716
0	20665	19631.769686162028	1.292915556021
0	20679	19637.638900640885	2.813218098243
0	20682	19639.018739385436	3.110588229361
0	20685	19640.670940832699	6.251182653382
0	20697	19672.126568272756	1.887330643502
0	20709	19675.311739546204	1.36800598111
0	20712	19677.077952914828	8.343999885492
0	20715	19678.370795766407	3.362207775093
0	20720	19680.871230714356	1.87654032167
0	20727	19687.451295611625	1.876104659401
0	20730	19688.74300943016	2.604774650261
0	20745	19704.782586230047	9.70038930571
0	20750	19708.966503126727	1.434559344873
0	20765	19736.737061836898	1.512256641686
0	20770	19746.245064302281	1.879731772095
0	20789	19759.513706422548	3.379581883256
0	20792	19760.72337853736	8.891128585686
0	20795	19762.280652387391	3.118818555602
0	20807	19777.142994670729	1.688956653513
0	20810	19778.381999400231	2.394072163352
0	20830	19791.006020325178	1.998415851966
0	20845	19801.106831930753	3.157541332872
0	20850	19806.155923171141	1.245699739456
0	20855	19808.372104073492	1.330253799073
0	20860	19828.597680372477	1.475439076684
0	20865	19831.735213657468	1.422745861672
0	20877	19842.904341210231	1.846862135082
0	20887	19862.892330421088	1.957536630332
0	20895	19867.589401632558	5.113588539382
0	20900	19870.330838881224	1.709542806819
0	20910	19898.272527749013	3.177322197092
0	20915	19900.073277085629	1.463341557607
0	20930	19914.965276346599	5.700720722644
0	20937	19918.24064617862	1.388237523846
0	20940	19919.790747324163	2.143322885439
0	20950	19924.856744350497	4.278430067775
0	20960	19937.786654656774	1.213385507837
0	20965	19959.690154722628	1.243425299786
0	20970	19962.92793183014	1.52100867983
0	20975	19968.869994936957	1.418675573356
0	20987	20009.269259212796	1.725514115579
0	21002	20016.367187111242	12.01893699487
0	21005	20018.333082780963	2.445134212541
0	21020	20042.282186744288	1.828258693963
0	21032	20052.503580337541	1.693277547881
0	21037	20054.40642974131	2.069789451916
0	21055	20071.011200926035	8.358170922675
0	21069	20076.75892688741	1.949690929428
0	21072	20078.736391191529	5.7372156957
0	21075	20080.608766230354	3.989799904518
0	21095	20091.465569298175	4.665517329984
0	21100	20097.821901197285	1.236829483509
0	21115	20109.745241832686	1.52107716538
0	21120	20113.228319158602	1.308483095467
0	21125	20125.085692419076	1.420810194127
0	21135	20130.813190676795	2.776122145109
0	21140	20135.233311091703	1.603523447178
0	21154	20152.233377725466	1.678859600239
0	21162	20155.444654012679	3.283408113958
0	21165	20157.227508880778	7.938588557293
0	21177	20171.291308381525	1.970258897357
0	21180	20173.180110543152	3.237372201068
0	21185	20181.358784650178	1.804198591597
0	21190	20185.183762687483	1.736269541644
0	21202	20190.302673450318	3.858930749347
0	21205	20191.82164101882	2.153436077125
0	21215	20206.807735112285	1.53765944615
0	21225	20220.784175834691	1.405561217293
0	21237	20224.670774640233	1.253916982003
0	21240	20226.587841463924	4.826631675317
0	21252	20232.023695404852	3.698384990936
0	21255	20233.250011775295	1.570273072841
0	21260	20243.422037886012	1.467463483475
0	21265	20251.02732933913	1.312929953448
0	21270	20261.589139377837	1.985655532777
0	21275	20269.652201771601	1.34293219652
0	21280	20282.730606063853	1.532852496579
0	21285	20286.058780551248	1.896957780048
0	21290	20288.190200688318	1.600612411834
0	21295	20312.657060917926	1.798003507964
0	21300	20316.007689531648	1.471397574432
0	21305	20331.872090323909	1.705653335527
0	21310	20337.391910671806	1.79382386934
0	21320	20349.241567479843	1.686377449334
0	21325	20351.465945063517	1.532258244418
0	21341	20362.355362002531	2.64008877582
0	21344	20363.657152846621	2.309128294245
0	21347	20365.129134182984	3.458909569123
0	21350	20366.846127278151	4.990821041981
0	21355	20372.01001500566	1.733915467188
0	21360	20375.841751089155	1.409558131918
0	21365	20388.82090634847	1.758526068367
0	21370	20395.005121277952	1.729529891349
0	21380	20401.067866278398	1.883343823627
0	21385	20410.725200132411	1.378663581423
0	21397	20416.301181721041	2.978426229522
0	21402	20417.721504538232	3.118853576927
0	21407	20419.470830021152	2.50452792073
0	21415	20422.009709961997	2.003084080574
0	21427	20428.067790266872	3.328584265369
0	21430	20429.43592520617	1.383684637242
0	21437	20436.881102877888	1.956715056673
0	21440	20438.825527850757	2.9826659499
0	21445	20448.078710639977	1.63352724947
0	21450	20487.030754052458	1.617150406539
0	21455	20498.921871438603	1.787739818171
0	21462	20501.278000877761	1.657421549596
0	21465	20502.566815980301	2.612031038924
0	21470	20505.478757498188	1.870177119225
0	21480	20519.164620325639	5.634688872587
0	21502	20568.493649642864	1.66686432492
0	21505	20569.742630159618	1.48697493339
0	21515	20577.895616725527	2.649770318684
0	21525	20585.242989901407	4.005847224813
0	21532	20587.721726101046	1.440043094195
0	21540	20591.36713047016	1.259470513649
0	21545	20593.668577847368	6.877114427746
0	21557	20597.868355691949	1.634432123601
0	21570	20626.839510120229	1.408230579644
0	21575	20629.28682770641	1.571295953542
0	21585	20645.512863092491	5.390347516839
0	21590	20648.547384082654	1.731297336146
0	21605	20662.636645991851	6.085366008842
0	21610	20695.140298467107	1.41490130499
0	21617	20703.006174066525	1.728845292889
0	21625	20707.227477297065	1.990645096451
0	21637	20716.129608238437	1.806280807219
0	21642	20717.434768459708	2.353991163757
0	21645	20719.068315293775	2.511323154953
0	21655	20739.856700212156	1.83061598856
0	21677	20750.644168856087	2.173746018263
0	21682	20751.952493054139	3.458757939377
0	21692	20754.607254709767	1.577304912238
0	21700	20759.853622277125	1.602532408573
0	21724	20771.744073613334	5.337471195359
0	21745	20783.110433891954	6.823343835493
0	21754	20788.964431029932	1.242916599847
0	21757	20790.89359064866	2.347703772123
0	21765	20797.271352481785	1.570694582351
0	21775	20808.654003301939	3.419439393196
0	21780	20811.991885979164	7.080379429964
0	21795	20820.950330405276	6.958638838777
0	21800	20824.683912096583	1.603676846623
0	21805	20842.754883364774	1.347964143567
0	21810	20854.676535682975	1.333689055592
0	21815	20867.691568875259	1.273793109134
0	21820	20874.122925567664	1.744314548187
0	21825	20876.399648301882	1.428832244314
0	21835	20886.037511149879	3.528438591977
0	21855	20928.690779680962	1.218301922455
0	21862	20930.53939753595	1.721009386517
0	21879	20936.559128621822	2.647394421154
0	21892	20941.484471293395	11.958166748898
0	21897	20942.830371670467	8.82090552503
0	21910	20954.715818386394	1.347188934125
0	21915	20957.426983925888	1.721840494499
0	21922	20962.840228858624	1.8283303326
0	21925	20964.419314176996	2.566399841847
0	21930	20972.08515175873	1.274368431047
0	21935	20973.942350168911	1.449409556016
0	21942	20979.651355733262	1.340278253146
0	21967	20989.568319364888	1.348982546851
0	21970	20991.470347125707	5.946348581652
0	21975	20998.756677223848	1.644896185212
0	21980	21009.328878696916	1.52350690309
0	21995	21037.677522819659	3.104893505642
0	22020	21055.425238295859	6.118150427764
0	22025	21059.836525726306	1.549399167486
0	22030	21070.114080553486	1.926009879448
0	22052	21083.617668193813	6.418490440935
0	22055	21085.442357918668	2.723551427913
0	22067	21104.273764201188	5.777038410374
0	22070	21105.66200661634	2.1236094419
0	22075	21109.507712158625	1.275399831124
0	22085	21115.43366421145	2.441001147993
0	22092	21117.256661223359	1.721142490767
0	22100	21120.192308596074	1.625016289033
0	22105	21122.682434317738	6.327582721236
0	22112	21127.740066499979	1.485835668445
0	22115	21129.51384996415	2.156347682082
0	22120	21134.912282815221	1.844894435816
0	22125	21137.665538850529	1.372901820391
0	22130	21141.189541281862	1.468641426973
0	22145	21171.769631806088	1.205512274243
0	22150	21175.821760112696	1.720924803242
0	22160	21180.796578766377	1.675150317015
0	22165	21183.744892462717	1.612752066553
0	22177	21189.701727609315	1.793416106142
0	22184	21191.063330043831	2.445094590793
0	22205	21209.069780904659	1.534443987347
0	22215	21220.481012539646	5.358700183028
0	22222	21237.412067022342	1.716350289807
0	22230	21254.23749795293	1.727140133269
0	22235	21255.887722445622	1.433397585899
0	22240	21257.585179558203	1.405874943919
0	22259	21277.993175426598	1.339845409951
0	22262	21279.70747038583	6.273753267603
0	22279	21287.201535177687	1.480157355964
0	22286	21288.731146837482	2.203891954021
0	22289	21290.275261312993	6.1104460106
0	22292	21291.916243050704	3.840929611943
0	22315	21301.518167587864	6.201721970096
0	22327	21312.579911236312	1.607434135303
0	22335	21323.682736783533	1.355438451655
0	22342	21332.550419952376	1.771552474983
0	22345	21334.416456453158	2.52913951411
0	22352	21336.917879697852	1.454296413623
0	22355	21338.866783019513	2.302845090966
0	22370	21369.892413511352	1.460203819349
0	22377	21379.942731440795	1.686526706256
0	22380	21381.214780826849	1.495112714752
0	22390	21401.123843680637	1.603828987852
0	22395	21402.914309301899	5.672572021258
0	22400	21407.144979575788	1.79332159888
0	22405	21408.901060341198	1.250732997432
0	22420	21441.655855453986	1.5959151797
0	22437	21454.141485381141	5.894388842663
0	22446	21455.440198962032	4.227346820182
0	22451	21457.12674367839	2.72669418704
0	22459	21460.103942380301	5.201713646174
0	22462	21461.804243667997	5.808131141313
0	22465	21463.589417251773	8.880101869417
0	22470	21469.832394266132	1.808700364083
0	22475	21476.672458909878	1.946328946576
0	22497	21491.527021245284	7.146198100272
0	22512	21496.741089256664	2.953897667907
0	22525	21520.381300911121	1.659282984026
0	22530	21525.674051721672	1.592840418406
0	22535	21541.120605149706	1.418186601251
0	22550	21554.567695066034	2.260003040531
0	22559	21556.455141080812	1.731128293276
0	22562	21557.917400332995	3.157077926682
0	22565	21559.622984163545	4.33423973016
0	22572	21567.635307739555	1.936785027571
0	22592	21577.465435231334	1.985951544344
0	22604	21580.454124201877	2.547195127126
0	22609	21582.202222568771	5.46667935065
0	22621	21584.641099190382	2.787167480139
0	22624	21586.630281932881	4.346949244807
0	22629	21587.939784007003	3.746471029111
0	22644	21592.183609856521	12.27910735429
0	22647	21594.093184967195	2.880780133696
0	22666	21598.639347769176	2.505135050475
0	22669	21600.46359479711	11.36992068753
0	22672	21601.964588305956	3.334518848869
0	22685	21614.174026608802	4.854001877113
0	22690	21629.809356416322	1.426110888086
0	22697	21633.943337066733	1.897281354852
0	22700	21635.520191104785	2.586779579312
0	22705	21639.152265841776	1.952970245667
0	22712	21660.257590073391	1.96499720607
0	22732	21674.185279552617	5.307958104767
0	22740	21679.304733385191	9.319135173949
0	22750	21698.613514379116	5.501852964123
0	22755	21702.555485182036	1.454929945059
0	22764	21716.746573015683	1.67008850649
0	22767	21718.359697618902	2.463488065773
0	22770	21719.796440847598	3.366297234641
0	22782	21727.140985347943	4.412423552518
0	22785	21728.788861389884	3.469049515854
0	22795	21734.446715929064	3.617102621591
0	22820	21755.886288689595	5.005242827852
0	22845	21769.311732990688	10.636183598696
0	22850	21771.652748615923	1.817320869491
0	22860	21775.794838371958	1.376807663403
0	22865	21781.975189754496	1.315508282743
0	22872	21786.078002544399	1.363991601579
0	22877	21787.913454964291	2.954354418424
0	22885	21790.663799457718	2.296666881371
0	22892	21797.900015818658	1.600616276078
0	22900	21806.870226485271	1.821331193298
0	22915	21826.898279688181	1.623116877303
0	22920	21832.906337360463	1.942449317127
0	22927	21844.086691199193	1.639579002932
0	22930	21846.011758043194	2.75802857096
0	22942	21855.053829194703	1.920839655586
0	22945	21856.50145996409	1.705328362838
0	22955	21865.16352412082	1.270928187482
0	22977	21873.971425092644	1.387968645964
0	22980	21875.564217688939	2.928969381831
0	22995	21884.287975362663	7.2738756366
0	23000	21889.656783273389	1.765172530524
0	23007	21893.670657340552	1.981016569771
0	23010	21895.008539139594	2.584012845876
0	23020	21911.312361984264	1.458165635355
0	23030	21925.867226597929	5.137983385834
0	23035	21942.472512262405	1.684685252607
0	23052	21960.683021274731	1.720257549919
0	23055	21962.577241761014	3.477131359866
0	23067	21977.396589442486	5.252679812104
0	23070	21979.004067950467	3.020005281708
0	23075	22009.467187034624	1.208767316304
0	23080	22012.265529953259	1.783386246301
0	23087	22015.802291066693	1.787954654358
0	23105	22029.731826634985	1.806579688564
0	23110	22034.560615639808	1.699131926708
0	23117	22064.407300530626	1.586610314436
0	23125	22068.146755166426	5.24610731437
0	23130	22072.321488725658	1.554381026328
0	23135	22076.260765390415	1.741768011451
0	23140	22079.239952185938	1.542068206146
0	23165	22092.145975321649	1.903118729793
0	23179	22096.434086339628	2.170964243857
0	23186	22097.86184227754	8.807240980143
0	23193	22099.815942804037	4.960823991687
0	23198	22101.627798153168	3.793543459404
0	23203	22103.479314707114	5.590190696947
0	23206	22104.729211320064	3.821282135
0	23223	22109.446287183918	3.268272492335
0	23228	22110.824701157853	8.019865804631
0	23231	22112.145006820455	7.114552935366
0	23245	22122.52906725729	1.506001081318
0	23257	22133.845050383957	2.860813657798
0	23265	22138.345284773384	1.202231958322
0	23270	22160.40147122447	1.792360893451
0	23275	22162.424072050887	1.679204690643
0	23282	22168.482597281659	1.752955139615
0	23285	22170.401415814335	2.119315259541
0	23290	22172.781371618307	1.629419511929
0	23299	22176.276171993981	1.747788419761
0	23304	22178.002532236981	3.360463930208
0	23329	22187.235252798374	1.766820871085
0	23332	22188.969261964808	12.997398211332
0	23337	22190.834058062943	5.155576143688
0	23357	22197.471965674317	5.236639994139
0	23365	22201.200795636996	10.610442298191
0	23370	22206.728939057711	1.348533296771
0	23380	22221.814759451395	1.704502999224
0	23392	22225.936410538343	1.706009864807
0	23397	22227.631176494112	2.649153919168
0	23407	22231.591439248714	16.549053246464
0	23410	22232.818495509121	2.271520275338
0	23422	22245.687438637068	2.459542250795
0	23425	22247.054118765195	2.370844641948
0	23430	22250.574808385005	8.13574408266
0	23445	22262.014526959961	6.226203595282
0	23457	22266.38694629173	3.841950848271
0	23460	22267.778145154633	1.607696145752
0	23465	22269.604730474034	1.489507750422
0	23477	22284.749832994778	6.025990219435
0	23485	22288.196587095501	4.296329117218
0	23490	22302.016695466837	1.635985972919
0	23500	22313.403407501893	1.874922080152
0	23507	22316.799335289469	1.270142064057
0	23512	22318.719206907881	2.500162686123
0	23535	22330.641490132966	1.97304999847
0	23540	22346.939541658321	1.464754148014
0	23545	22350.222112051599	1.393378617428
0	23554	22356.960668680883	1.959731649421
0	23557	22358.635078466936	2.975609045604
0	23564	22360.225552270069	4.476122390111
0	23569	22361.725507216594	2.866203411729
0	23572	22363.322965411349	3.283732628077
0	23575	22364.536762931636	3.999545528814
0	23585	22373.555107179067	1.352374076843
0	23590	22383.656320249186	1.925179608539
0	23595	22395.603972975464	1.499365069903
0	23600	22399.161302358114	1.437387598492
0	23605	22402.746360140208	1.359002236463
0	23610	22412.513718814557	1.760302169435
0	23617	22417.670669483286	1.567543103732
0	23620	22419.463903118935	1.938508973679
0	23625	22428.561494451273	1.631850566529
0	23632	22437.086748439176	1.317110607401
0	23635	22438.860708008995	2.802585727024
0	23652	22448.273094516782	8.114689635465
0	23657	22449.692753035551	1.955158510465
0	23664	22451.571943463547	2.889407062365
0	23670	22454.131637342063	3.23201380502
0	23677	22456.330486933868	1.766144935228
0	23680	22457.892789565753	7.445920580556
0	23695	22478.526448889057	1.403925217502
0	23732	22496.834891085337	9.36279850116
0	23740	22499.516709395881	2.129182834233
0	23752	22503.960309343695	12.707462847522
0	23755	22505.921062849372	15.206493464786
0	23762	22516.548725003811	1.984442897327
0	23765	22518.302933808478	2.276280297158
0	23770	22520.315572975031	1.531411393359
0	23775	22536.185799083694	1.697964882478
0	23787	22540.619225303393	1.310691305622
0	23790	22542.53703622644	5.503063037694
0	23797	22545.34920443711	1.916252776794
0	23820	22567.430434562257	1.541676773876
0	23825	22569.566237847694	1.665231431089
0	23830	22571.422610431768	1.37027935423
0	23835	22577.779448050402	1.771796116419
0	23840	22590.520242420543	1.767504852824
0	23845	22596.539802766006	1.213992997818
0	23870	22620.835083550216	5.937363997565
0	23875	22624.214022670381	1.433091571368
0	23885	22642.394542584215	1.519470285997
0	23890	22646.102127149579	1.540949664637
0	23895	22658.559147250164	1.297341131978
0	23900	22669.687980761647	1.540654528327
0	23905	22677.578187302676	1.342785026692
0	23920	22690.039965658962	8.310745409273
0	23925	22712.139292686703	1.452299524285
0	23940	22721.794248226593	1.803387883119
0	23952	22726.184412910784	1.529073549435
0	23955	22727.851195088396	2.967263843546
0	23962	22743.352789760429	1.607476492412
0	23982	22750.162454722684	6.536084261233
0	23985	22752.152951580148	3.601587500796
0	23990	22758.577118394437	1.761722952127
0	23997	22764.484832016447	1.273932939209
0	24007	22768.571608441882	4.641692570383
0	24010	22770.278757838346	2.316266640776
0	24017	22775.09207900923	1.969364400581
0	24025	22777.766379203576	2.278876433803
0	24030	22780.313772984947	6.771999679413
0	24035	22798.405583672293	1.789793220349
0	24040	22807.360349845158	1.931286116876
0	24045	22827.748308171429	1.225739534013
0	24050	22829.813170875322	1.937239022367
0	24060	22846.211021978668	1.489212367497
0	24065	22847.534243880997	1.257733496651
0	24087	22860.97464188011	5.492947479286
0	24092	22862.633602570459	2.022121094463
0	24095	22864.182622875735	1.55842437187
0	24107	22874.181434207613	3.804927544237
0	24112	22876.133455943333	2.057580647314
0	24119	22877.653020801039	1.777137703541
0	24122	22878.935005933808	1.850750295174
0	24127	22880.707243919948	3.184554579938
0	24130	22881.997802272642	1.988463912738
0	24142	22891.474995323084	1.556221677922
0	24155	22902.220305556679	1.239602105133
0	24162	22905.60749779386	1.482352372073
0	24165	22906.994982853024	2.441124294935
0	24182	22916.110440472257	6.720453494113
0	24205	22926.733137865968	1.919786701538
0	24210	22929.138481555321	1.887986703403
0	24215	22942.3884550798	1.955382997356
0	24220	22954.158563940601	1.842675856873
0	24230	22965.740661738095	3.462766238391
0	24235	22971.48820117262	1.608438506722
0	24252	22988.594571229846	5.297685938142
0	24255	22989.926108250798	5.715057954908
0	24267	22995.627947907628	1.962012178518
0	24277	23003.264021293279	1.319962598383
0	24280	23005.072988603469	2.699941231578
0	24287	23007.217218250896	1.349857697263
0	24290	23008.628610704954	2.023817079145
0	24297	23019.616764367822	1.381243669055
0	24300	23020.969839492704	1.983212103564
0	24315	23040.009501363093	1.208637265116
0	24322	23052.412264601809	1.580062713102
0	24332	23055.633146254455	3.039304393378
0	24340	23060.408022572044	9.058722192617
0	24345	23095.434964153061	1.430456230417
0	24352	23106.550125385432	1.886111077294
0	24355	23108.35335303562	2.419745308692
0	24367	23116.000925499508	1.981949950382
0	24370	23117.935163368592	6.796045556867
0	24387	23134.943301469692	4.560890062781
0	24392	23136.314129610219	2.437886242192
0	24397	23138.064771011145	2.510744435111
0	24400	23139.379866161988	2.003040840106
0	24405	23144.77086409639	1.61319233235
0	24415	23166.172120701956	1.405966447294
0	24435	23177.636763071614	2.202923093826
0	24440	23191.982676062859	1.728826007992
0	24445	23201.819291204979	1.863750822097
0	24455	23216.769601443249	4.152327768963
0	24460	23228.979199587664	1.557535367832
0	24465	23231.477136963755	1.649385772273
0	24475	23257.10286984788	3.864656431356
0	24480	23269.742707542348	1.663392039575
0	24490	23275.143893813195	1.601721058041
0	24495	23278.75514924779	1.465228011459
0	24502	23285.048990584919	1.749032139033
0	24510	23292.117259126495	1.239107789472
0	24522	23299.889669224065	2.879237248253
0	24535	23309.6852210714	1.59554129038
0	24557	23317.725823227625	1.645168479127
0	24560	23318.999266824435	4.308901719376
0	24565	23323.185435433523	1.693233556487
0	24570	23331.557866085766	1.32543263156
0	24575	23334.012395862007	1.876391169056
0	24590	23351.333131369883	2.466421497675
0	24595	23355.275132538218	1.707997136377
0	24602	23358.125308515649	1.787435575016
0	24605	23360.020389770489	1.996664226624
0	24610	23369.729617790305	1.966638986953
0	24620	23377.237983425027	1.28537696898
0	24625	23393.654100195479	1.378398700245
0	24650	23434.027106031519	11.123837057404
0	24655	23436.029996742927	1.827669498511
0	24665	23440.600482690767	3.186969310769
0	24670	23453.120289838729	1.841392512061
0	24680	23470.51242253363	1.493120693788
0	24685	23476.164117728894	1.281199711747
0	24690	23479.39050057094	1.84333504606
0	24695	23481.282710796925	1.615683740191
0	24707	23511.718497835173	1.91770170778
0	24717	23516.652297420137	1.459454232454
0	24720	23517.985604474031	2.257284595591
0	24725	23521.01703163228	1.873858354054
0	24735	23525.08272890048	3.116967110018
0	24740	23531.457549285718	1.639937117696
0	24750	23536.439707401099	2.151131291079
0	24760	23541.630186141252	3.394803111946
0	24765	23548.637415029894	1.676623369381
0	24784	23553.995201521421	5.307339353471
0	24790	23556.556897243167	4.088156023631
0	24795	23560.664784195391	10.015407003339
0	24800	23562.303382550377	1.27576178927
0	24822	23579.554797053021	5.046725100092
0	24830	23582.789460838643	1.626687924465
0	24840	23589.789901741164	4.506614581925
0	24845	23598.511432076872	1.916814919189
0	24850	23604.969950989923	1.253592178226
0	24855	23610.023840385519	1.767553138733
0	24860	23613.337469176132	1.735292416252
0	24865	23628.145607906876	1.4540232962
0	24872	23635.219600066226	1.740847198479
0	24875	23637.062048089933	2.316216336526
0	24885	23641.839311047214	1.895630197892
0	24890	23647.816892608709	1.839055027254
0	24904	23651.717573529675	2.749640977579
0	24912	23655.512905451103	4.83652480817
0	24915	23656.747057090892	1.39158536714
0	24927	23661.738058765733	12.959155119704
0	24932	23663.202877676987	2.851835833335
0	24940	23665.676191086822	1.671063680564
0	24945	23681.593402848772	1.377671607584
0	24950	23683.259567797654	1.627416066267
0	24955	23685.172973178145	1.550496209785
0	24960	23689.228010160975	1.542254670151
0	24965	23691.521021190472	1.954528968595
0	24972	23696.585283176835	1.718008313142
0	24985	23703.911496059833	7.918847313149
0	24992	23725.086633908437	1.702076119184
0	24995	23726.376825849214	2.609171568386
0	25000	23729.640939938408	1.994036933407
0	25007	23731.935554138914	1.705283080414
0	25010	23733.470849851862	1.641444547316
0	25022	23737.857614269106	3.862381404764
0	25030	23744.915583460352	1.494949531183
0	25037	23752.482487441534	1.547132106312
0	25047	23756.474580650114	4.980799532341
0	25055	23768.17347059913	1.861967339739
0	25072	23773.999757640482	4.972584543191
0	25075	23775.552220173785	5.379534141534
0	25080	23780.919393052317	1.320167077705
0	25094	23785.131476391665	2.791447033479
0	25097	23786.624439498036	4.031895554808
0	25105	23796.054395516736	1.212231055461
0	25110	23801.144835869829	1.664498085342
0	25115	23813.36772060638	1.92598632779
0	25120	23830.855712497922	1.612202114984
0	25125	23839.205536549329	1.688629890792
0	25130	23841.097734529091	1.45183166787
0	25135	23842.761087056035	1.272173957899
0	25147	23853.309912997484	1.698830064759
0	25150	23854.755340047367	1.862252965323
0	25155	23863.229927204806	1.421904505044
0	25160	23868.931406483344	1.432822426222
0	25165	23872.627559558429	1.521765532717
0	25170	23879.773132190926	1.50209090542
0	25175	23916.372400707869	1.831782859378
0	25180	23935.017191177514	1.958386184461
0	25200	23958.121867981129	3.047021214909
0	25217	23968.098864259997	15.854159662818
0	25220	23969.437708139287	1.665653128409
0	25227	23971.44152636568	1.518628320843
0	25230	23973.354646354941	3.023184267368
0	25240	23989.254800475916	4.016998501073
0	25245	23992.268907097283	1.538058909401
0	25250	24012.174383285255	1.762709605321
0	25255	24015.703459080267	1.351488242671
0	25260	24023.913850402476	1.715818332881
0	25265	24050.324696876071	1.470852022804
0	25272	24051.7490755977	1.297798616067
0	25277	24053.365530491237	1.70025360278
0	25280	24055.002955264215	2.788922355098
0	25290	24068.186841855181	3.301866806417
0	25295	24077.654062242659	1.221601493284
0	25300	24090.027173995461	1.228490260243
0	25305	24092.542721299864	1.451853800938
0	25310	24100.956467162627	1.361678837799
0	25317	24106.922864025395	1.486767222174
0	25320	24108.21402024192	1.325596375476
0	25342	24130.06447525161	8.616468154709
0	25345	24131.736918646159	2.06035641546
0	25350	24140.525108849289	1.357448348962
0	25370	24160.40148116947	6.009629453024
0	25375	24168.968816540616	1.82260879539
0	25380	24179.860679750072	1.648847411573
0	25385	24188.704432701821	1.242999275029
0	25390	24194.809811427287	1.865811664425
0	25400	24198.686630303549	3.079470013349
0	25405	24220.141570630935	1.772291124053
0	25410	24222.293783403192	1.457992045954
0	25420	24233.2439396725	1.424897061102
0	25430	24236.446329930591	1.704984206893
0	25435	24253.925409489805	1.910955450125
0	25449	24275.835856055732	2.39985373083
0	25452	24277.486140114705	4.007403531125
0	25457	24279.331712797361	4.146807744404
0	25460	24281.210119112658	8.593418736942
0	25470	24288.737955892379	3.011898745893
0	25480	24292.229501558127	7.285051721259
0	25492	24303.142078899007	8.197950669898
0	25500	24311.770115540077	1.323157984205
0	25512	24320.040805165023	2.670521888475
0	25515	24321.900939382352	4.321880404235
0	25520	24323.850649696659	7.282910410459
0	25525	24340.832230122272	1.366153414734
0	25530	24342.781888543906	1.891438511759
0	25540	24349.740814342329	1.552305286936
0	25545	24353.71958834555	1.691892152838
0	25557	24361.152944778396	4.855662239181
0	25560	24362.732354745759	2.635952206316
0	25565	24365.132727502262	1.692108596489
0	25580	24379.572344285452	8.15616950408
0	25592	24382.761318758517	2.195543421504
0	25597	24384.51410462094	4.86978703998
0	25600	24386.441447041384	2.668618030865
0	25605	24399.542317798403	1.218495138176
0	25615	24414.012449178075	1.793681605719
0	25620	24420.360260110995	1.791932883859
0	25627	24432.504171234609	1.225132561103
0	25630	24433.836422415504	1.334759115271
0	25640	24446.757337798096	6.838426420977
0	25645	24459.945370381928	1.384015133046
0	25650	24467.967329934294	1.63238533102
0	25660	24499.168880190852	1.794356252998
0	25672	24506.186234768968	1.907366898283
0	25677	24507.647923138667	1.51101854083
0	25680	24508.919556466047	1.771231522643
0	25685	24529.531190029518	1.663295449503
0	25690	24542.386237088257	1.224767225794
0	25712	24553.85687221076	8.440344984618
0	25715	24555.778323024433	6.720179074724
0	25727	24563.438623111923	2.219069275284
0	25730	24565.340614763316	2.142464854079
0	25750	24598.208973887452	1.848308750801
0	25762	24603.876994362852	3.04585915142
0	25770	24617.120142837223	1.738133814
0	25780	24636.231670014721	1.555085314997
0	25785	24642.198248980808	1.33180828765
0	25790	24649.647235568237	1.885737573169
0	25797	24651.504671597988	1.221137169749
0	25800	24652.91714601288	2.399389288216
0	25805	24657.644802885049	1.841196689568
0	25827	24684.622337691894	5.07937625125
0	25840	24689.480156732718	9.136654887913
0	25845	24700.041680049877	1.633323886618
0	25852	24704.451121123405	1.909636854008
0	25857	24705.779878525147	3.127918131553
0	25860	24707.756046405704	2.151854174219
0	25870	24714.516339779924	6.560674835949
[...]
6	30860	29507.682245312323	1
6	30861	29508.696709476444	0
6	30900	29555.46964317212	1
6	30901	29555.657316036435	0
6	30917	29567.164086463143	1
6	30918	29567.608008987202	0
6	30927	29569.135077250586	1
6	30928	29570.136054571463	0
6	30950	29594.691418651231	1
6	30951	29595.589496173055	0
6	30965	29602.825420789151	1
6	30966	29603.996069975834	0
6	30975	29606.717596202327	1
6	30976	29607.654276185226	0
6	30980	29608.623508385565	1
6	30981	29608.893091031839	0
6	30985	29609.742598567471	1
6	30986	29610.294729410601	0
6	31035	29655.729571143141	1
6	31037	29657.194025591092	2
6	31038	29657.413782836438	1
6	31042	29657.708970399253	2
6	31043	29659.058576358982	1
6	31046	29660.785633447148	0
6	31110	29717.455939433692	1
6	31111	29718.046039235051	0
6	31165	29785.688198685696	1
6	31166	29786.692641742883	0
6	31195	29822.747302836773	1
6	31196	29824.429593272388	0
6	31210	29844.514709070362	1
6	31211	29845.5479691936	0
6	31240	29859.538224737807	1
6	31241	29859.641697730792	0
6	31265	29889.874604677071	1
6	31266	29890.179838519631	0
6	31280	29895.760154442055	1
6	31281	29895.947714604905	0
6	31305	29917.077132224055	1
6	31306	29917.536900498873	0
6	31325	29926.112022933812	1
6	31327	29926.789787251803	2
6	31328	29927.909052747091	1
6	31331	29929.457741418829	0
6	31355	29957.427608367211	1
6	31356	29958.292995390456	0
6	31365	29969.918055258283	1
6	31366	29971.3253048441	0
6	31370	29972.734201061184	1
6	31371	29972.772229884434	0
6	31375	29974.076203010728	1
6	31376	29974.218478613588	0
6	31380	29974.295889168113	1
6	31381	29975.424208421688	0
6	31385	29975.497025011718	1
6	31386	29977.178205898459	0
6	31395	29981.277744786397	1
6	31396	29981.499398569835	0
6	31400	29981.653598338562	1
6	31401	29983.279710974058	0
6	31405	29983.592936765444	1
6	31407	29984.652539459303	2
6	31408	29984.775295822209	1
6	31412	29985.770014235492	2
6	31414	29986.166525572792	3
6	31415	29986.465108481122	2
6	31419	29987.023650526151	3
6	31420	29987.91644091334	2
6	31423	29989.813520263394	1
6	31426	29991.570481568647	0
6	31430	29992.25879577024	1
6	31431	29992.871907617783	0
6	31435	29994.061301324944	1
6	31436	29994.221394905707	0
6	31445	29998.375103655984	1
6	31447	29998.524502122175	2
6	31448	29999.000896227463	1
6	31452	29999.676806073864	2
7	11100	10055.570526613845	1
7	11102	10056.688060657452	2
7	11103	10057.313525530934	1
7	11107	10057.562506072872	2
7	11118	10061.950917118466	1
7	11126	10065.139723081752	0
7	11130	10065.277754529496	1
7	11131	10067.123734895378	0
7	11150	10087.3536801942	1
7	11151	10087.371002658716	0
7	11407	10366.805366179116	1
7	11411	10369.243252545543	0
7	11422	10371.55820278297	1
7	11424	10371.628718574194	2
7	11433	10375.850387690724	1
7	11436	10377.739651954123	0
7	11440	10377.843013809487	1
7	11441	10379.304795479351	0
7	11450	10384.468981960036	1
7	11451	10384.677609686179	0
7	11455	10384.850318552196	1
7	11456	10385.919097025877	0
7	11749	10700.58465206926	1
7	11756	10705.244397182703	0
7	12305	11318.789546867223	1
7	12311	11321.668140428032	0
7	12502	11492.923575024993	1
7	12506	11494.357385379612	0
7	12605	11600.157891808077	1
7	12606	11600.40631707582	0
7	12640	11616.223520276926	1
7	12641	11616.389818129629	0
7	12685	11648.201974928007	1
7	12686	11648.721180921247	0
7	12772	11706.243682939692	1
7	12791	11713.243002235923	0
7	12917	11863.555997267455	1
7	12921	11866.12615510889	0
7	12995	11911.956721120876	1
7	12996	11913.01168485916	0
7	13005	11916.247180159339	1
7	13006	11916.661212839547	0
7	13285	12255.306189000593	1
7	13297	12259.721712630044	2
7	13298	12260.233094145354	1
7	13301	12262.060149783637	0
7	13375	12359.195326278459	1
7	13376	12359.736430437134	0
7	13500	12510.094063447619	1
7	13501	12511.185539334071	0
7	13527	12519.500432431066	1
7	13536	12522.887245099796	0
7	13602	12573.803189403196	1
7	13606	12576.24214118226	0
7	13610	12577.042277048782	1
7	13611	12578.214240505086	0
7	13907	12855.316389408613	1
7	13911	12857.253774351951	0
7	13920	12860.145550275194	1
7	13921	12860.493080207657	0
7	13955	12898.497337973988	1
7	13956	12898.680555561965	0
7	13967	12901.048993741372	1
7	13971	12904.040957981383	0
7	14120	13073.533224150968	1
7	14122	13073.935088241828	2
7	14123	13074.192395979702	1
7	14136	13079.287393142075	0
7	14155	13086.98946309905	1
7	14156	13087.108195154099	0
7	14160	13088.28531977927	1
7	14166	13090.309305704861	0
7	14210	13132.124781591905	1
7	14211	13133.479077531499	0
7	14252	13160.640814385426	1
7	14273	13165.921377517517	2
7	14275	13166.002772731049	3
7	14288	13170.142063447021	4
7	14292	13171.461907036062	3
7	14295	13172.771230633761	2
7	14301	13173.954051390027	3
7	14305	13176.070885025355	2
7	14308	13177.767202147487	1
7	14312	13178.619174863567	2
7	14319	13179.883479946718	3
7	14320	13181.331915307436	2
7	14328	13184.422370394152	1
7	14331	13185.626855076496	0
7	14490	13389.583019181826	1
7	14506	13396.707165002757	0
7	14515	13399.534380280627	1
7	14516	13400.262348836967	0
7	14535	13419.598387073052	1
7	14541	13422.795669962655	0
7	14675	13582.638252960589	1
7	14676	13583.775621383174	0
7	14715	13602.372832598242	1
7	14716	13603.231190738158	0
7	14755	13623.36782021654	1
7	14756	13623.991538716265	0
7	14815	13681.959327049311	1
7	14821	13685.284256907449	0
7	15235	14154.265470196047	1
7	15236	14154.756704149157	0
7	15275	14187.971641300937	1
7	15276	14188.564353179216	0
7	15305	14215.326190926155	1
7	15306	14215.70571847567	0
7	15420	14332.988312436532	1
7	15426	14336.099468133017	0
7	15445	14372.509606294824	1
7	15446	14373.446754108178	0
7	15590	14550.264843320715	1
7	15591	14550.816781968483	0
7	15665	14632.386310960838	1
7	15666	14633.616097559633	0
7	15720	14684.215793020131	1
7	15736	14689.255168153766	0
7	15882	14837.785566878144	1
7	15891	14841.10179529505	0
7	15925	14878.94974731881	1
7	15926	14879.795017600024	0
7	16070	15008.017253857482	1
7	16071	15009.36071816338	0
7	16090	15024.301586221981	1
7	16091	15024.82825346194	0
7	16124	15049.332767684818	1
7	16131	15052.840808218524	0
7	16142	15078.948162467572	1
7	16156	15084.800358194065	0
7	16182	15123.201814745266	1
7	16186	15126.171839821393	0
7	16212	15156.478135260019	1
7	16221	15161.289927323153	0
7	16275	15205.705386980496	1
7	16282	15207.291336505859	2
7	16283	15208.190351508732	1
7	16291	15211.25850474498	0
7	16375	15305.521239650721	1
7	16376	15306.225079623043	0
7	16520	15475.625414773191	1
7	16521	15476.532653808995	0
7	16540	15482.644724858938	1
7	16541	15483.94980372489	0
7	16710	15574.020074424236	1
7	16711	15575.64089838257	0
7	16820	15662.000641625535	1
7	16821	15663.250417826445	0
7	16825	15664.186382753776	1
7	16826	15664.641087718242	0
7	17035	15796.962491288392	1
7	17036	15797.052034185352	0
7	17040	15797.071733462532	1
7	17041	15798.462140199812	0
7	17065	15823.403500671439	1
7	17066	15824.205944837185	0
7	17092	15848.914741572376	1
7	17097	15850.785204082688	2
7	17098	15850.829868835382	1
7	17101	15852.129450430892	0
7	17137	15873.297165526885	1
7	17139	15873.553864339985	2
7	17163	15882.343947766827	1
7	17166	15883.75284497823	0
7	17170	15883.794747725965	1
7	17182	15887.754195193395	2
7	17183	15888.747278363736	1
7	17191	15892.043829531701	0
7	17245	15979.381377773109	1
7	17246	15979.930262121034	0
7	17305	16035.46360772858	1
7	17311	16037.224610307705	0
7	17575	16323.939260565721	1
7	17576	16324.683637662485	0
7	17582	16325.36035933347	1
7	17592	16328.329798242018	2
7	17594	16328.923007604607	3
7	17595	16329.730579756453	2
7	17598	16331.674541287004	1
7	17601	16333.651468399978	0
7	17700	16436.097109544718	1
7	17701	16436.379212097687	0
7	17810	16576.33268752445	1
7	17811	16577.254053848797	0
7	17930	16732.34307953045	1
7	17931	16732.845133920736	0
7	18055	16834.416124441911	1
7	18056	16834.76308546518	0
7	18177	16982.350183529201	1
7	18181	16985.129136973143	0
7	18245	17091.358630617881	1
7	18246	17091.936534975354	0
7	18257	17094.191176115913	1
7	18261	17096.450750311908	0
7	18360	17182.65667142632	1
7	18364	17183.107029770389	2
7	18368	17185.626194691733	1
7	18376	17188.842464281693	0
7	18490	17294.947692705584	1
7	18491	17296.327445961983	0
7	18510	17301.967837300229	1
7	18512	17302.543333625474	2
7	18514	17302.777911820025	3
7	18515	17303.326719162574	2
7	18518	17304.746396871244	1
7	18521	17306.181111218368	0
7	18525	17306.911274211331	1
7	18526	17307.559729073157	0
7	18545	17338.422025526123	1
7	18546	17338.599381121633	0
7	18612	17397.412586096278	1
7	18626	17402.723223830741	0
7	18640	17413.958900566456	1
7	18646	17416.617418818169	0
7	18650	17417.965877797096	1
7	18656	17420.190828851232	0
7	18670	17425.984636481746	1
7	18671	17427.01971922945	0
7	18885	17680.414670487185	1
7	18886	17681.472758063375	0
7	18895	17684.950790684348	1
7	18896	17685.832174097353	0
7	18925	17728.885927208351	1
7	18926	17729.959860127201	0
7	19132	17895.871727892451	1
7	19136	17898.401550789134	0
7	19160	17920.369443943422	1
7	19161	17921.065351457298	0
7	19285	18046.067354930425	1
7	19286	18046.598574056007	0
7	19345	18090.304785023941	1
7	19346	18090.495681205664	0
7	19360	18119.291011131313	1
7	19371	18123.34536357467	0
7	19885	18724.06405787552	1
7	19886	18724.333853711576	0
7	19905	18756.262832516258	1
7	19906	18757.525385274559	0
7	19915	18764.171940708428	1
7	19916	18764.610518277748	0
7	20115	19025.863724579731	1
7	20116	19026.354653410272	0
7	20350	19309.700607648388	1
7	20351	19311.08841756992	0
7	20625	19605.489830723701	1
7	20646	19613.922800819135	0
7	20820	19786.263656234917	1
7	20821	19786.807469170118	0
7	20875	19842.555436518151	1
7	20876	19842.904341210231	0
7	21035	20053.793557523354	1
7	21036	20054.40642974131	0
7	21085	20086.862376083367	1
7	21086	20088.691265019048	0
7	21405	20417.897547366642	1
7	21406	20419.470830021152	0
7	21490	20546.585707821909	1
7	21491	20546.982594570748	0
7	21555	20596.390823497636	1
7	21556	20597.868355691949	0
7	21615	20701.760761137086	1
7	21616	20703.006174066525	0
7	21665	20746.447542479485	1
7	21666	20747.667216887045	0
7	21680	20751.11389433407	1
7	21681	20751.952493054139	0
7	21690	20753.912100881118	1
7	21691	20754.607254709767	0
7	21707	20767.101196015403	1
7	21711	20768.498702584739	0
7	21717	20769.737196584901	1
7	21722	20771.276330673723	2
7	21723	20771.744073613334	1
7	21727	20771.776354946704	2
7	21728	20773.713737763438	1
7	21731	20775.191214078452	0
7	21752	20788.66447625413	1
7	21756	20790.89359064866	0
7	21877	20935.872394828768	1
7	21881	20938.404682730181	0
7	21895	20941.537757537982	1
7	21896	20942.830371670467	0
7	21940	20979.407256915933	1
7	21941	20979.651355733262	0
7	22010	21051.562237663074	1
7	22011	21052.120585482037	0
7	22040	21079.578403764976	1
7	22041	21080.960298287731	0
7	22180	21190.501676587347	1
7	22182	21190.785779051384	2
7	22183	21191.063330043831	1
7	22186	21192.368628331811	0
7	22190	21192.450144954478	1
7	22192	21192.450929871929	2
7	22193	21193.99056042114	1
7	22196	21195.493694487565	0
7	22220	21236.883886476843	1
7	22221	21237.412067022342	0
7	22250	21275.658706934052	1
7	22261	21279.70747038583	0
7	22282	21287.854495390636	1
7	22291	21291.916243050704	0
7	22300	21295.837124497731	1
7	22301	21296.656307014654	0
7	22325	21311.832581648417	1
7	22326	21312.579911236312	0
7	22410	21416.938031473386	1
7	22411	21418.247832869525	0
7	22480	21485.654160263586	1
7	22481	21486.133983101274	0
7	22495	21490.803691742951	1
7	22496	21491.527021245284	0
7	22500	21492.991244790794	1
7	22501	21493.259118118694	0
7	22505	21493.615476530761	1
7	22511	21496.741089256664	0
7	22570	21566.641900708476	1
7	22571	21567.635307739555	0
7	22627	21587.918106357457	1
7	22646	21594.093184967195	0
7	22650	21594.292753046149	1
7	22671	21601.964588305956	0
7	22710	21658.407908041066	1
7	22711	21660.257590073391	0
7	22807	21751.252928568267	1
7	22811	21753.374408929754	0
7	22875	21787.587691228154	1
7	22876	21787.913454964291	0
7	22890	21797.208172110101	1
7	22891	21797.900015818658	0
7	22905	21817.328099880161	1
7	22906	21818.30892878253	0
7	23085	22015.303729989891	1
7	23086	22015.802291066693	0
7	23095	22019.243022817543	1
7	23096	22019.600515972968	0
7	23182	22096.626885933558	1
7	23191	22099.568334587323	2
7	23211	22105.288557385816	3
7	23230	22112.145006820455	2
7	23233	22113.712429694727	1
7	23236	22115.612769830681	0
7	23255	22132.287112979743	1
7	23256	22133.845050383957	0
7	23302	22176.896830300994	1
7	23307	22179.183356036512	2
7	23308	22179.705440304572	1
7	23311	22181.318298189858	0
7	23352	22195.909057305937	1
7	23356	22197.471965674317	0
7	23510	22317.927666351051	1
7	23511	22318.719206907881	0
7	23795	22544.415150068407	1
7	23796	22545.34920443711	0
7	23930	22716.239676438828	1
7	23931	22717.13691535338	0
7	23960	22741.763246659252	1
7	23961	22743.352789760429	0
7	23970	22745.30486235277	1
7	23971	22746.810909079622	0
7	24140	22891.179986378951	1
7	24141	22891.474995323084	0
7	24180	22915.311225391476	1
7	24181	22916.110440472257	0
7	24185	22916.318166552511	1
7	24186	22917.65090418302	0
7	24190	22918.681250331241	1
7	24191	22919.285561916907	0
7	24265	22993.915313747681	1
7	24266	22995.627947907628	0
7	24330	23055.614872234057	1
7	24331	23055.633146254455	0
7	24420	23173.784501154619	1
7	24421	23173.946972820136	0
7	24425	23174.074695605789	1
7	24426	23175.172425520766	0
7	24500	23284.832180518897	1
7	24501	23285.048990584919	0
7	24520	23298.693770010361	1
7	24521	23299.889669224065	0
7	24540	23311.118982655753	1
7	24541	23311.502403172687	0
7	24705	23510.598208393306	1
7	24706	23511.718497835173	0
7	24810	23575.346994661333	1
7	24811	23576.06202805346	0
7	24820	23577.85113429768	1
7	24821	23579.554797053021	0
7	24930	23662.92566840447	1
7	24931	23663.202877676987	0
7	25020	23736.896267961742	1
7	25021	23737.857614269106	0
7	25045	23755.187386961342	1
7	25046	23756.474580650114	0
7	25092	23783.934996103117	1
7	25096	23786.624439498036	0
7	25490	24302.709040555703	1
7	25491	24303.142078899007	0
7	25757	24601.138939284661	1
7	25761	24603.876994362852	0
7	25935	24770.141264450835	1
7	25936	24770.569054961315	0
7	25945	24774.613761103333	1
7	25946	24775.513580068881	0
7	25980	24808.557184879771	1
7	25982	24809.587024651417	2
7	25983	24810.085487852701	1
7	25994	24813.397540131037	2
7	25998	24815.554939208077	1
7	26001	24817.31267019053	0
7	26047	24855.505796141448	1
7	26056	24859.831497389799	0
7	26135	24994.765785042145	1
7	26136	24995.341294878377	0
7	26150	25011.740293726209	1
7	26151	25012.025418465899	0
7	26207	25032.468852859456	1
7	26216	25035.84593225062	0
7	26342	25182.421067792447	1
7	26346	25183.915352444655	0
7	26685	25551.685762457157	1
7	26686	25552.308511157922	0
7	26715	25581.011609707545	1
7	26716	25582.660183714624	0
7	26755	25603.343359362287	1
7	26759	25604.58297246348	2
7	26763	25606.405672741153	1
7	26766	25607.989673032456	0
7	26845	25712.732573605677	1
7	26846	25714.175830824404	0
7	26860	25718.24102805575	1
7	26861	25719.531575530119	0
7	26865	25719.874309014027	1
7	26866	25721.019694603517	0
7	26882	25730.753339652252	1
7	26886	25732.850213238828	0
7	26890	25733.808072633399	1
7	26891	25734.380971574828	0
7	26895	25734.738890939761	1
7	26901	25737.370508883193	0
7	27025	25874.37051022522	1
7	27026	25875.04959805912	0
7	27187	26027.501086233896	1
7	27196	26032.051515349384	0
7	27200	26032.101145295527	1
7	27206	26035.585848302778	0
7	27310	26142.785900368049	1
7	27311	26143.888531489787	0
7	27350	26178.450716994131	1
7	27351	26178.700447290924	0
7	27359	26180.468169365628	1
7	27376	26186.884179154199	0
7	27595	26374.02344243014	1
7	27596	26374.646705991378	0
7	27705	26471.880974303082	1
7	27706	26473.235910781379	0
7	27820	26612.616015285116	1
7	27832	26617.12004236284	2
7	27833	26617.29060553159	1
7	27836	26618.57795565273	0
7	27885	26725.763696965922	1
7	27886	26726.412981659778	0
7	27890	26727.414064427585	1
7	27891	26728.030998268769	0
7	27925	26781.047274408141	1
7	27926	26782.538340893331	0
7	27950	26796.623646331741	1
7	27966	26803.281871312587	0
7	28005	26840.377459100099	1
7	28006	26840.485315933591	0
7	28142	26976.688236147738	1
7	28151	26980.279425170647	0
7	28205	27026.169078278347	1
7	28206	27026.227079009661	0
7	28245	27055.491564138288	1
7	28246	27056.674645076778	0
7	28250	27057.225391147963	1
7	28251	27058.559443822589	0
7	28260	27061.333211139886	1
7	28261	27063.195774920403	0
7	28410	27255.87332227259	1
7	28411	27256.223885540048	0
7	28477	27357.253991320397	1
7	28486	27359.931944871538	0
7	28527	27402.161569088487	1
7	28531	27405.350223123035	0
7	28535	27406.094199132745	1
7	28536	27406.641194372004	0
7	28590	27439.603450651988	1
7	28596	27441.718007858984	0
7	28695	27525.658644120616	1
7	28701	27527.549403207309	0
7	28720	27542.15729532257	1
7	28731	27546.524297463947	0
7	28925	27733.758396592745	1
7	28926	27734.767346803522	0
7	29000	27761.284086005063	1
7	29001	27762.049282214852	0
7	29025	27783.07363837247	1
7	29026	27783.085990648787	0
7	29040	27789.185197552155	1
7	29041	27790.588818727524	0
7	29200	27946.934487414451	1
7	29201	27948.437452680238	0
7	29210	27955.246579348821	1
7	29211	27955.74804639033	0
7	29235	27968.339220976266	1
7	29236	27969.83018608526	0
7	29262	27983.121805327495	1
7	29266	27986.013178537794	0
7	29335	28035.694595270559	1
7	29336	28037.070613019211	0
7	29585	28305.642153084988	1
7	29591	28308.238646924657	0
7	29595	28308.682022856306	1
7	29596	28309.886974537534	0
7	29600	28310.665061289498	1
7	29601	28311.67664225099	0
7	29610	28313.943801467268	1
7	29611	28315.338295464123	0
7	29637	28324.971787968087	1
7	29646	28328.527741201534	0
7	29700	28375.42916786528	1
7	29701	28377.35970903427	0
7	29745	28408.930801066541	1
7	29746	28409.190624356699	0
7	29960	28629.787843896319	1
7	29961	28630.968039312076	0
7	30152	28811.554372750323	1
7	30156	28813.653848056696	0
7	30259	28893.043849430551	1
7	30272	28897.112807852649	2
7	30273	28898.024957434374	1
7	30281	28901.406214704278	0
7	30405	29029.667150352806	1
7	30406	29030.62804040651	0
7	30420	29040.367514452606	1
7	30421	29040.512979235017	0
7	30505	29147.84940858748	1
7	30506	29148.200115827098	0
7	30510	29149.549374208763	1
7	30511	29149.877784227766	0
7	30515	29150.753548578421	1
7	30516	29151.667459769919	0
7	30562	29189.504144436321	1
7	30571	29193.128303501031	0
7	30600	29241.818054329621	1
7	30601	29242.187812802315	0
7	30684	29329.204041375611	1
7	30691	29332.208044822587	0
7	30915	29566.355239047476	1
7	30922	29568.385090163937	2
7	30923	29568.889441688663	1
7	30931	29572.05260549721	0
7	31095	29712.25202015271	1
7	31096	29713.250820000993	0
7	31105	29715.014084587525	1
7	31106	29716.306436270866	0
7	31145	29771.284420428657	1
7	31146	29772.624478791151	0
7	31250	29869.43548946806	1
7	31251	29870.884329339706	0
7	31260	29887.948359549578	1
7	31261	29888.316208371421	0
8	12552	11529.949280816668	1
8	12554	11531.083191521153	0
8	14010	12962.256292839766	1
8	14011	12962.665552391942	0
8	14254	13160.818742270972	1
8	14256	13161.071272569945	0
8	14259	13162.656425883639	1
8	14264	13164.082452957909	2
8	14268	13165.081007834352	1
8	14270	13165.092139843648	0
8	16610	15522.626372660707	1
8	16611	15524.045094632177	0
8	16657	15542.171126499891	1
8	16659	15542.410657376422	0
8	16969	15765.482666261791	1
8	16974	15768.392864859293	0
8	16977	15769.270700701437	1
8	16979	15769.640677228313	0
8	16995	15775.021220907866	1
8	16996	15776.16760870607	0
8	17275	16005.457006704434	1
8	17276	16007.923581874314	0
8	21882	20938.404682730181	1
8	21884	20938.748727882401	0
8	22430	21452.515519735433	1
8	22431	21452.642658727817	0
8	22725	21671.848150058694	1
8	22726	21672.315884039902	0
8	23345	22193.862311889442	1
8	23346	22194.884706409655	0
8	23737	22498.197616793412	1
8	23744	22502.017612335475	0
8	26162	25015.25470481267	1
8	26164	25015.868739554885	0
8	26515	25361.27659091239	1
8	26516	25361.327631140984	0
8	28952	27742.929014985313	1
8	28954	27743.2534043666	0
8	30040	28702.109001568587	1
8	30041	28702.795797150581	0
8	30237	28886.864850159232	1
8	30244	28889.554092957438	0
8	31050	29662.100330574378	1
8	31051	29663.274551497611	0
8	31397	29981.499398569835	1
8	31399	29981.653598338562	0
8	31437	29994.221394905707	1
8	31441	29997.24817856039	0
9	21719	20770.130295696828	1
9	21721	20771.276330673723	0

