version 2
run Third_exit_5-12-20191114-11:42:56-9021
attr configname Third_exit_5
attr datetime 20191114-11:42:56
attr experiment Third_exit_5
attr inifile omnetpp.ini
attr iterationvars ""
attr iterationvarsf ""
attr measurement ""
attr network ResponseTimeNetwork
attr processid 9021
attr repetition 12
attr replication #12
attr resultdir results
attr runnumber 12
attr seedset 12
param **.Source.interArrivalTime exponential(6s)
param **.jobPriority bernoulli(0.8)
param **.PS.serviceTimeU1 "uniform(1.2s, 2.0s)"
param **.PS.serviceTimeU2 "uniform(2.4s, 2.8s)"
param **.SS1.serviceTime exponential(1.4s)
param **.SS2.serviceTime exponential(2s)
param **.PS.exitProbability bernoulli(0.5)

vector 0 ResponseTimeNetwork.QueueU1 queueLength:vector ETV
attr interpolationmode sample-hold
attr title "queue length, vector"
vector 1 ResponseTimeNetwork.sink lifeTimeU1:vector ETV
attr interpolationmode none
attr title "lifetime of arrived jobs U1, vector"
attr unit s
vector 2 ResponseTimeNetwork.sink totalServiceTimeU1:vector ETV
attr interpolationmode none
attr title "the total time spent  by arrived jobs U1, vector"
attr unit s
vector 3 ResponseTimeNetwork.sink lifeTime:vector ETV
attr interpolationmode none
attr title "lifetime of arrived jobs, vector"
attr unit s
vector 4 ResponseTimeNetwork.sink totalServiceTime:vector ETV
attr interpolationmode none
attr title "the total time spent  by arrived jobs, vector"
attr unit s
vector 5 ResponseTimeNetwork.sink lifeTimeU2:vector ETV
attr interpolationmode none
attr title "lifetime of arrived jobs U2, vector"
attr unit s
vector 6 ResponseTimeNetwork.sink totalServiceTimeU2:vector ETV
attr interpolationmode none
attr title "the total time spent  by arrived jobs U2, vector"
attr unit s
vector 7 ResponseTimeNetwork.QueueU2 queueLength:vector ETV
attr interpolationmode sample-hold
attr title "queue length, vector"
vector 8 ResponseTimeNetwork.SS1 queueLength:vector ETV
attr interpolationmode sample-hold
attr title "queue length, vector"
vector 9 ResponseTimeNetwork.SS2 queueLength:vector ETV
attr interpolationmode sample-hold
attr title "queue length, vector"
0	16970	10004.507074083959	1
0	16971	10004.715554320009	0
0	16975	10005.975295523327	1
0	16976	10006.158368636051	0
0	16980	10006.393930255084	1
0	16981	10007.829333687702	0
0	16985	10009.011122801273	1
0	16986	10009.152319503331	0
0	16990	10010.279861456313	1
0	16991	10010.559211581328	0
0	16995	10010.69035193796	1
0	16996	10011.787083139957	0
0	17005	10031.024627788492	1
0	17007	10031.484431342518	2
0	17008	10032.130496334627	1
0	17011	10033.917755733214	0
0	17015	10035.101604927796	1
0	17016	10035.541170012548	0
0	17030	10070.996791410154	1
0	17031	10072.065669772804	0
0	17035	10072.882669486491	1
0	17036	10074.004878150143	0
0	17040	10074.918238406482	1
0	17041	10075.843936167874	0
0	17055	10082.507073806902	1
0	17056	10083.303754080653	0
0	17060	10084.111143212784	1
0	17061	10085.210865907751	0
0	17085	10102.270403617426	1
0	17086	10102.94205846242	0
0	17090	10103.550888357737	1
0	17092	10104.069600758004	2
0	17094	10104.462022317318	3
0	17095	10104.708577891768	2
0	17098	10106.697747267366	1
0	17101	10108.05149306278	0
0	17110	10111.304465830828	1
0	17111	10111.84989820468	0
0	17120	10116.484902864936	1
0	17121	10116.502016439724	0
0	17125	10116.866503690417	1
0	17126	10118.3624244983	0
0	17135	10120.203423783382	1
0	17136	10121.271456630256	0
0	17140	10122.4325917269	1
0	17141	10122.531258488175	0
0	17180	10172.454539461741	1
0	17181	10173.369270670975	0
0	17185	10174.919705488939	1
0	17186	10174.927113585549	0
0	17195	10179.116707575064	1
0	17196	10179.23615072299	0
0	17255	10238.91704628126	1
0	17256	10240.416877850811	0
0	17260	10241.385339469175	1
0	17261	10242.12788599554	0
0	17280	10248.935390960828	1
0	17281	10250.424147327773	0
0	17302	10261.724356497314	1
0	17303	10262.251141105785	0
0	17335	10286.86929154068	1
0	17336	10286.886423496968	0
0	17340	10287.620867301609	1
0	17342	10288.388855362225	2
0	17343	10288.876266162163	1
0	17346	10290.327978520906	0
0	17357	10292.54513302743	1
0	17358	10292.867149916729	0
0	17362	10293.998380010168	1
0	17363	10294.436080182036	0
0	17420	10343.222739573997	1
0	17421	10344.179285461996	0
0	17440	10355.742758501509	1
0	17441	10356.393780417531	0
0	17480	10385.358867244004	1
0	17481	10386.957266531005	0
0	17485	10387.370163855383	1
0	17486	10388.382317655399	0
0	17515	10406.311703844206	1
0	17516	10407.208333848842	0
0	17520	10408.026822832847	1
0	17521	10409.153269822017	0
0	17527	10409.824930973204	1
0	17528	10410.879467688181	0
0	17532	10412.449084522758	1
0	17533	10412.767014227115	0
0	17540	10414.839066887522	1
0	17541	10416.202536144906	0
0	17575	10447.019968405854	1
0	17576	10447.404545545842	0
0	17620	10492.33256303313	1
0	17621	10492.862100485026	0
0	17630	10496.547435608019	1
0	17631	10497.148172727592	0
0	17670	10516.845445369656	1
0	17673	10518.286638648518	0
0	17682	10521.038338891976	1
0	17683	10521.760995650188	0
0	17700	10527.421119949417	1
0	17702	10527.75826495847	2
0	17703	10528.60570813761	1
0	17706	10529.977091370233	0
0	17710	10529.998095119707	1
0	17713	10531.606760631212	0
0	17720	10534.077887621384	1
0	17721	10534.373685159058	0
0	17732	10537.00082535487	1
0	17735	10537.891218115005	0
0	17739	10538.595170585578	1
0	17740	10539.520318286854	0
0	17744	10541.024720264672	1
0	17746	10541.099772686041	2
0	17747	10541.473048425826	1
0	17750	10543.245609639945	0
0	17754	10543.90254663403	1
0	17755	10544.646029785263	0
0	17759	10544.741049232991	1
0	17761	10545.517053784259	2
0	17762	10546.293687414738	1
0	17766	10546.550967530765	2
0	17767	10548.18517522792	1
0	17770	10549.645217685575	0
0	17774	10550.665323400665	1
0	17776	10551.076226870488	2
0	17777	10551.150665315414	1
0	17780	10553.003217841299	0
0	17784	10553.376341945641	1
0	17786	10553.668807523169	2
0	17787	10554.964037668692	1
0	17790	10556.815027197624	0
0	17794	10557.510788324401	1
0	17795	10558.646202307741	0
0	17830	10604.90992158697	1
0	17831	10605.045329387304	0
0	17840	10607.369199164861	1
0	17841	10608.537167658661	0
0	17875	10620.069828932631	1
0	17876	10621.616302778535	0
0	17940	10661.846786755505	1
0	17941	10662.544104780512	0
0	17950	10664.942066371738	1
0	17951	10665.603059239568	0
0	18050	10758.162017467656	1
0	18051	10758.187316983462	0
0	18105	10790.967771393466	1
0	18106	10791.9167982048	0
0	18110	10792.085480339847	1
0	18111	10793.540768556913	0
0	18115	10794.742806987345	1
0	18116	10794.897100169642	0
0	18125	10797.840788847151	1
0	18126	10797.97184865555	0
0	18150	10808.403196387784	1
0	18151	10809.072984466679	0
0	18165	10814.425202603725	1
0	18167	10815.031544277812	2
0	18169	10815.189736705812	3
0	18170	10815.610939253318	2
0	18173	10817.057367748591	1
0	18177	10817.290614012579	2
0	18179	10817.35040162148	3
0	18180	10819.012690904002	2
0	18185	10820.342725660104	1
0	18189	10821.399683097227	2
0	18190	10822.319039054971	1
0	18194	10822.707235366022	2
0	18196	10823.051675918883	3
0	18197	10823.837858193938	2
0	18200	10825.547672250133	1
0	18204	10825.898527011873	2
0	18205	10827.124783776898	1
0	18209	10827.541023900449	2
0	18210	10828.863713944528	1
0	18214	10829.075200130843	2
0	18215	10830.822504871722	1
0	18219	10832.240266698768	2
0	18220	10832.726283959124	1
0	18223	10834.353655021649	0
0	18227	10834.496262832506	1
0	18229	10835.890705415014	2
0	18230	10836.102456528332	1
0	18236	10837.052647668383	2
0	18237	10838.096770620916	1
0	18240	10839.904563655529	0
0	18257	10845.96425970528	1
0	18259	10846.532461775907	2
0	18261	10846.641634801034	3
0	18262	10846.69895250519	2
0	18267	10848.57518542764	1
0	18271	10849.264000687754	2
0	18273	10849.816325825272	3
0	18274	10850.1563828515	2
0	18278	10850.323194437657	3
0	18279	10851.888755376276	2
0	18283	10851.933556622637	3
0	18284	10853.538316943881	2
0	18287	10854.851533302677	1
0	18291	10855.674944758418	2
0	18293	10856.032679622872	3
0	18294	10856.815919201833	2
0	18298	10857.475996108872	3
0	18299	10858.584967211646	2
0	18302	10859.826029630017	1
0	18306	10860.941330805887	2
0	18308	10861.165341544861	3
0	18309	10861.604734929849	2
0	18312	10863.027600188751	1
0	18315	10864.539613054518	0
0	18319	10866.204482670122	1
0	18320	10866.425998885941	0
0	18350	10892.415897356561	1
0	18352	10893.317320159016	2
0	18354	10893.713618447808	3
0	18355	10893.722580751388	2
0	18359	10893.810172199063	3
0	18360	10895.586868904887	2
0	18363	10896.825108494593	1
0	18367	10897.370678925734	2
0	18368	10898.182834851166	1
0	18372	10898.680762571726	2
0	18373	10899.808335856704	1
0	18377	10901.097044429778	2
0	18378	10901.337121658197	1
0	18381	10903.090287469311	0
0	18385	10903.144028115495	1
0	18386	10905.068165181747	0
0	18395	10911.499520401792	1
0	18396	10911.502995560058	0
0	18405	10913.722691240821	1
0	18406	10914.549339347811	0
0	18410	10915.172725965443	1
0	18411	10916.461664691859	0
0	18450	10935.265587772434	1
0	18451	10936.892226344768	0
0	18455	10937.852849465765	1
0	18456	10938.74061763664	0
0	18460	10938.79956403809	1
0	18462	10939.028991202584	2
0	18463	10940.508142026376	1
0	18467	10940.967534441175	2
0	18468	10941.986351088855	1
0	18471	10943.278109331291	0
0	18475	10943.507239450654	1
0	18477	10944.025371338283	2
0	18478	10944.591494139705	1
0	18481	10946.515883876618	0
0	18515	10986.824537100376	1
0	18516	10987.069953267465	0
0	18525	10990.635529051008	1
0	18527	10990.847939888784	2
0	18529	10991.221185466405	3
0	18530	10991.966862358294	2
0	18533	10993.346556056246	1
0	18537	10993.964828881782	2
0	18538	10994.723712023489	1
0	18541	10996.491763186596	0
0	18545	10997.713555303776	1
0	18546	10998.382299956262	0
0	18550	10999.086043237152	1
0	18551	10999.631407839388	0
0	18555	10999.892651681232	1
0	18556	11001.003175923556	0
0	18570	11008.397291220622	1
0	18571	11008.59734612156	0
0	18575	11009.109375805741	1
0	18576	11010.472870737615	0
0	18580	11011.024888147044	1
0	18584	11011.539696771836	2
0	18585	11011.714818307499	1
0	18588	11012.938992815951	0
0	18595	11015.241369104069	1
0	18597	11015.280642802873	2
0	18598	11016.255753359499	1
0	18602	11016.843875080445	2
0	18605	11018.064192431534	1
0	18608	11019.792894317696	0
0	18612	11020.733636113559	1
0	18614	11021.073700829448	2
0	18615	11021.204741676079	1
0	18618	11023.009657462614	0
0	18630	11031.716891047642	1
0	18631	11032.686864007105	0
0	18635	11034.556767988607	1
0	18636	11034.663060688627	0
0	18655	11052.509508879277	1
0	18656	11053.051730239206	0
0	18662	11053.596291496553	1
0	18663	11054.928515617923	0
0	18667	11055.363845249244	1
0	18668	11056.891387025268	0
0	18675	11058.836513547251	1
0	18680	11060.568897229434	0
0	18689	11063.008286679969	1
0	18691	11063.046003679425	2
0	18692	11063.324743979984	1
0	18695	11065.13148044441	0
0	18705	11069.079977407611	1
0	18708	11070.168731197715	0
0	18715	11073.309133055012	1
0	18717	11073.887781151756	2
0	18718	11073.899080503732	1
0	18723	11075.256329171173	0
0	18750	11117.736274065709	1
0	18752	11117.772757469752	2
0	18753	11117.919839213779	1
0	18757	11118.023574610063	2
0	18758	11119.303131680554	1
0	18763	11120.87354953493	0
0	18785	11132.231021910825	1
0	18786	11133.733649508026	0
0	18790	11134.261209961708	1
0	18791	11135.363549878937	0
0	18795	11135.394428537519	1
0	18797	11135.77378056405	2
0	18798	11137.353166239825	1
0	18801	11138.876579160732	0
0	18825	11148.204146335629	1
0	18827	11149.010350200371	2
0	18828	11149.511075005035	1
0	18831	11151.034085501644	0
0	18835	11152.361076397089	1
0	18836	11152.745733465168	0
0	18845	11155.809443958272	1
0	18846	11155.984563204182	0
0	18855	11158.478557071528	1
0	18856	11160.265588956167	0
0	18945	11196.82545478762	1
0	18946	11197.675556390154	0
0	19005	11237.747392239473	1
0	19006	11238.709329696056	0
0	19010	11239.505811781131	1
0	19011	11240.668370915261	0
0	19020	11242.895685193118	1
0	19023	11244.291645100672	0
0	19040	11253.750248706025	1
0	19041	11254.651619582037	0
0	19065	11276.648812657129	1
0	19066	11276.941672130222	0
0	19070	11278.661495950231	1
0	19071	11278.697301444518	0
0	19075	11278.905381314748	1
0	19077	11279.219565792968	2
0	19078	11280.47057037774	1
0	19081	11281.770893752123	0
0	19090	11285.303285860124	1
0	19092	11286.294075488063	2
0	19093	11286.732340439874	1
0	19097	11287.944333843565	2
0	19098	11288.085430736932	1
0	19102	11288.602764798255	2
0	19103	11289.731508373748	1
0	19107	11290.549573305212	2
0	19109	11290.602772061623	3
0	19110	11291.403965159226	2
0	19114	11291.914447239881	3
0	19115	11293.052319818456	2
0	19118	11294.505568498094	1
0	19122	11295.562078443	2
0	19123	11296.109980172385	1
0	19127	11296.52136490427	2
0	19128	11297.741094374191	1
0	19131	11299.488641065638	0
0	19135	11300.152327795232	1
0	19139	11300.799395623662	2
0	19140	11301.177425395417	1
0	19144	11302.214453865514	2
0	19145	11302.576614392641	1
0	19149	11303.705181994853	2
0	19150	11304.051390822696	1
0	19154	11304.78929691841	2
0	19156	11304.951705727171	3
0	19157	11305.857247058394	2
0	19161	11306.008828160511	3
0	19162	11307.467407361696	2
0	19166	11307.721024809838	3
0	19167	11309.430325278359	2
0	19170	11311.19908433305	1
0	19174	11311.850269937279	2
0	19175	11312.532929509598	1
0	19179	11313.232986472731	2
0	19182	11313.891609827708	1
0	19185	11315.554986004624	0
0	19189	11316.681547374611	1
0	19192	11317.525243129674	0
0	19196	11317.597904556291	1
0	19197	11319.370195420552	0
0	19201	11319.790453471024	1
0	19202	11321.232832781319	0
0	19237	11334.442818512145	1
0	19239	11334.950809797258	2
0	19240	11335.710624099175	1
0	19243	11337.037462512242	0
0	19247	11337.23050625188	1
0	19248	11338.858612213867	0
0	19252	11340.15332707942	1
0	19253	11340.522593264306	0
0	19257	11341.225459698955	1
0	19258	11342.384343350144	0
0	19262	11342.42448349451	1
0	19264	11343.680708446219	2
0	19265	11343.852562452318	1
0	19268	11345.455682964275	0
0	19280	11349.368105004334	1
0	19282	11350.958701289376	2
0	19283	11351.143768955107	1
0	19286	11352.815641713786	0
0	19320	11368.167756792263	1
0	19321	11369.287230755082	0
0	19325	11369.46423270649	1
0	19326	11370.91637685678	0
0	19335	11376.439269335889	1
0	19336	11376.770989240445	0
0	19340	11376.942406780119	1
0	19343	11378.422861196026	0
0	19350	11380.707125996521	1
0	19351	11381.597423940077	0
0	19415	11415.366774111897	1
0	19416	11415.626102700003	0
0	19425	11418.568466351195	1
0	19426	11419.444244437361	0
0	19440	11437.319797230783	1
0	19441	11437.565418764056	0
0	19445	11437.672748746761	1
0	19446	11439.14136018701	0
0	19450	11439.420579168246	1
0	19451	11440.363279728816	0
0	19480	11467.628933824055	1
0	19481	11468.537243036502	0
0	19495	11473.032693039645	1
0	19496	11474.550028304734	0
0	19525	11531.827015052931	1
0	19526	11532.625211543316	0
0	19530	11532.73505453212	1
0	19531	11534.596888115169	0
0	19545	11544.757686388602	1
0	19546	11545.279004635882	0
0	19550	11545.431644826423	1
0	19551	11546.515884539705	0
0	19580	11584.933370243838	1
0	19581	11586.102912669732	0
0	19585	11586.368537615264	1
0	19587	11587.77411346074	2
0	19588	11588.033003316178	1
0	19592	11588.526502757747	2
0	19593	11589.339540292053	1
0	19597	11589.466067944209	2
0	19598	11591.054254520974	1
0	19601	11592.91106835167	0
0	19615	11614.087285858297	1
0	19618	11615.164169728386	0
0	19622	11615.873158159113	1
0	19623	11617.096282752233	0
0	19645	11632.431812378089	1
0	19648	11634.362165947485	0
0	19655	11635.863324028821	1
0	19658	11637.414442222605	0
0	19665	11639.600942267146	1
0	19666	11640.159937816711	0
0	19670	11640.212541370863	1
0	19671	11641.585745516645	0
0	19675	11642.614375487019	1
0	19676	11642.958277083973	0
0	19720	11675.055441505814	1
0	19721	11676.098398136476	0
0	19730	11678.234131175889	1
0	19731	11679.833308084618	0
0	19745	11683.270849207237	1
0	19747	11683.900316083124	2
0	19748	11684.228563521589	1
0	19752	11684.315126100054	2
0	19753	11685.592296768884	1
0	19756	11687.228746583286	0
0	19762	11688.685301667962	1
0	19763	11688.792671401213	0
0	19767	11689.321897669811	1
0	19769	11689.82879713997	2
0	19770	11690.507107402544	1
0	19774	11690.810735634613	2
0	19775	11692.149301943343	1
0	19778	11693.725678545583	0
0	19782	11694.557895201088	1
0	19783	11695.392223919716	0
0	19802	11704.479396000434	1
0	19803	11704.848688214798	0
0	19807	11705.590517631125	1
0	19809	11705.961999363775	2
0	19810	11706.555558894728	1
0	19813	11707.934485340644	0
0	19817	11708.301438060413	1
0	19818	11709.50019155309	0
0	19822	11710.856026409502	1
0	19823	11711.084257231061	0
0	19829	11712.005094726104	1
0	19830	11712.503191905808	0
0	19834	11713.163407157985	1
0	19835	11714.008263170127	0
0	19839	11714.105889774345	1
0	19841	11715.254338648715	2
0	19842	11715.70751033273	1
0	19846	11716.768438923355	2
0	19847	11716.966903031398	1
0	19850	11718.727190662329	0
0	19867	11725.003452410634	1
0	19868	11725.185845135679	0
0	19877	11726.979678035015	1
0	19878	11728.4864706583	0
0	19882	11729.23381162166	1
0	19883	11730.215274551292	0
0	19890	11731.883099223646	1
0	19892	11732.409686809884	2
0	19893	11733.350879584406	1
0	19896	11734.847213558447	0
0	19900	11734.963535692872	1
0	19901	11736.462839324925	0
0	19905	11737.305324948908	1
0	19906	11738.06923454475	0
0	19910	11738.244392563463	1
0	19911	11739.492495867204	0
0	19930	11758.467015237443	1
0	19931	11759.444456322997	0
0	19935	11761.057709791628	1
0	19936	11761.296910993888	0
0	20005	11795.800171188802	1
0	20006	11796.161701817131	0
0	20015	11813.238697000381	1
0	20016	11814.33347559851	0
0	20045	11830.983922301487	1
0	20046	11830.996753925841	0
0	20055	11834.371138026777	1
0	20056	11834.410708644811	0
0	20060	11834.837367421284	1
0	20061	11836.246375443425	0
0	20070	11844.027786760446	1
0	20071	11845.085567421753	0
0	20080	11848.591912436344	1
0	20081	11849.881056105919	0
0	20090	11856.137896126638	1
0	20091	11856.802655516616	0
0	20095	11857.049059240382	1
0	20097	11857.780187313155	2
0	20098	11858.369869094021	1
0	20102	11858.994950408873	2
0	20103	11859.597068879805	1
0	20106	11860.929029071941	0
0	20115	11863.870154685514	1
0	20116	11864.708641303324	0
0	20120	11866.242002371767	1
0	20121	11866.54019915256	0
0	20135	11875.876215066615	1
0	20136	11876.666609010577	0
0	20150	11901.888179410043	1
0	20152	11902.00000469266	2
0	20153	11902.798004480978	1
0	20157	11903.222531163694	2
0	20158	11904.735517366571	1
0	20162	11905.180537023963	2
0	20163	11906.283568815482	1
0	20166	11907.50884117872	0
0	20175	11913.863526464534	1
0	20177	11914.373274245724	2
0	20178	11914.605657277938	1
0	20182	11914.821760460781	2
0	20184	11916.236126493506	3
0	20185	11916.592807244819	2
0	20188	11918.130148615998	1
0	20193	11919.498060112756	0
0	20197	11920.038851426952	1
0	20198	11921.361871431519	0
0	20204	11922.23683500245	1
0	20205	11922.880362601888	0
0	20212	11925.256185391279	1
0	20213	11926.684388312075	0
0	20217	11926.70682171265	1
0	20218	11927.979132382694	0
0	20222	11928.363341525449	1
0	20226	11929.471695473197	2
0	20227	11929.539750444825	1
0	20231	11930.140365782655	2
0	20233	11930.17528243287	3
0	20234	11931.392989615846	2
0	20237	11932.963381757896	1
0	20241	11934.243676364822	2
0	20242	11934.32842533284	1
0	20246	11935.240496142981	2
0	20247	11936.283756866615	1
0	20250	11937.982983314555	0
0	20254	11939.0978629592	1
0	20255	11939.654765673105	0
0	20259	11939.828396724517	1
0	20261	11940.081862759007	2
0	20263	11940.856442911878	3
0	20264	11941.125853669394	2
0	20270	11942.714417652602	3
0	20271	11942.761786226306	2
0	20275	11943.659033775561	3
0	20276	11944.157981142152	2
0	20280	11944.832115988827	3
0	20281	11945.891704611231	2
0	20285	11946.752466797749	3
0	20286	11947.453834247526	2
0	20290	11947.564429577961	3
0	20291	11948.863169509296	2
0	20295	11949.204861711564	3
0	20296	11950.373736134295	2
0	20299	11952.267585309346	1
0	20302	11953.655773037982	0
0	20306	11954.366042017076	1
0	20307	11955.085542221677	0
0	20327	11962.051457233989	1
0	20328	11963.177064579476	0
0	20347	11968.038696130198	1
0	20348	11969.353091347337	0
0	20365	11975.479912295035	1
0	20366	11976.97191102481	0
0	20380	11992.405218176412	1
0	20381	11993.560097239086	0
0	20420	12012.19966092013	1
0	20421	12012.348912412838	0
0	20440	12026.202462542169	1
0	20441	12026.288592147021	0
0	20450	12030.412178966612	1
0	20451	12030.614054881997	0
0	20457	12031.959671310083	1
0	20458	12032.31314229726	0
0	20465	12034.238016520969	1
0	20466	12035.106581615499	0
0	20470	12035.374019370717	1
0	20471	12037.031517290353	0
0	20485	12045.036771703611	1
0	20487	12045.060676343855	2
0	20488	12045.3397875783	1
0	20492	12045.655641086908	2
0	20493	12047.252986179941	1
0	20496	12048.549294813999	0
0	20500	12049.543581969025	1
0	20501	12049.897326250651	0
0	20527	12061.600079337461	1
0	20528	12062.003431651475	0
0	20535	12063.644383537533	1
0	20536	12065.191287984433	0
0	20550	12072.45181523069	1
0	20551	12072.737386856347	0
0	20565	12083.56201749583	1
0	20566	12084.664324339696	0
0	20580	12089.298812836538	1
0	20581	12090.073501215321	0
0	20590	12092.382870836187	1
0	20591	12093.421745477803	0
0	20595	12093.923145822901	1
0	20597	12094.257205974795	2
0	20598	12095.408898403495	1
0	20601	12097.097207691334	0
0	20615	12119.812893306245	1
0	20616	12119.828901327507	0
0	20620	12119.9564643367	1
0	20621	12121.374577096396	0
0	20625	12121.57893996003	1
0	20626	12122.710582358309	0
0	20635	12125.422323350472	1
0	20636	12126.934442415993	0
0	20690	12171.102904466354	1
0	20691	12172.349579080464	0
0	20695	12172.459179457148	1
0	20696	12173.642912822114	0
0	20700	12173.915434648272	1
0	20701	12174.854628107221	0
0	20705	12175.937630825507	1
0	20706	12176.187817469881	0
0	20715	12177.883181103136	1
0	20716	12178.745651944195	0
0	20720	12180.071955313343	1
0	20721	12180.291294636418	0
0	20725	12181.72298176003	1
0	20726	12181.974911354509	0
0	20735	12185.311321083463	1
0	20736	12185.972200716019	0
0	20745	12189.924367163222	1
0	20746	12190.128710485789	0
0	20765	12200.607691538125	1
0	20766	12201.090093661314	0
0	20775	12203.739536490631	1
0	20777	12204.10888716555	2
0	20778	12204.962327581251	1
0	20782	12205.724551176908	2
0	20783	12206.460238037424	1
0	20787	12206.629256582933	2
0	20789	12206.901973555257	3
0	20790	12208.440315805914	2
0	20794	12208.907904373918	3
0	20795	12209.710770318078	2
0	20799	12211.131206249064	3
0	20800	12211.484197261723	2
0	20803	12213.028553157466	1
0	20806	12214.561502885798	0
0	20815	12216.805855508899	1
0	20817	12216.852655155726	2
0	20818	12218.543588167685	1
0	20821	12220.340635213326	0
0	20825	12220.746811566855	1
0	20826	12222.20523635454	0
0	20830	12222.458133024094	1
0	20832	12223.488007894553	2
0	20833	12223.831298063393	1
0	20836	12225.137627963792	0
0	20840	12225.705611170062	1
0	20841	12226.650092008966	0
0	20850	12230.517984947565	1
0	20851	12231.032588809588	0
0	20890	12258.487345993824	1
0	20891	12259.14938262791	0
0	20900	12263.633763099367	1
0	20901	12264.561687897256	0
0	20905	12265.201252694177	1
0	20906	12266.023703029303	0
0	20935	12283.577731092117	1
0	20937	12284.424616775499	2
0	20938	12284.842625382643	1
0	20942	12286.133149823438	2
0	20943	12286.254807315122	1
0	20946	12287.588798783075	0
0	20960	12292.578966826365	1
0	20961	12293.741982203396	0
0	20965	12293.926545817761	1
0	20967	12294.797903996314	2
0	20968	12295.739932873333	1
0	20972	12296.285654244247	2
0	20973	12297.686995497579	1
0	20978	12299.454434653977	0
0	21020	12365.493313963352	1
0	21021	12367.27037678762	0
0	21050	12378.891301927386	1
0	21051	12379.360112272356	0
0	21060	12382.855900900636	1
0	21063	12384.091337768312	0
0	21070	12386.757875678958	1
0	21071	12387.726241921585	0
0	21110	12415.031474589851	1
0	21111	12415.673326237955	0
0	21115	12416.658250760631	1
0	21116	12417.504612307333	0
0	21130	12443.242159156276	1
0	21131	12444.962601193776	0
0	21145	12450.330391725994	1
0	21147	12450.585120830782	2
0	21148	12450.745002605379	1
0	21151	12452.038796797194	0
0	21160	12454.938937940786	1
0	21161	12455.003850777246	0
0	21170	12456.631061100239	1
0	21171	12458.160265340641	0
0	21180	12459.856501762369	1
0	21181	12461.736823639632	0
0	21185	12462.015584955725	1
0	21186	12463.708595981062	0
0	21205	12477.534429208157	1
0	21206	12478.653627823264	0
0	21212	12479.21962915249	1
0	21213	12480.278524094605	0
0	21275	12540.495988728249	1
0	21276	12540.622572476598	0
0	21285	12543.34127652392	1
0	21286	12544.770419748034	0
0	21295	12546.997864245491	1
0	21296	12548.120619897595	0
0	21300	12548.247306194646	1
0	21302	12548.928975129957	2
0	21303	12549.420132663152	1
0	21306	12551.008164512231	0
0	21365	12601.309726912065	1
0	21366	12601.65720544466	0
0	21395	12617.487933690631	1
0	21397	12618.462820961007	2
0	21398	12618.498805319882	1
0	21401	12620.149223497502	0
0	21415	12627.42795932843	1
0	21416	12628.77645678388	0
0	21455	12667.496356127563	1
0	21456	12669.014248792951	0
0	21460	12669.703463731494	1
0	21461	12670.72546254949	0
0	21480	12684.337461859349	1
0	21481	12684.533291905444	0
0	21485	12684.968979578212	1
0	21486	12685.92212933458	0
0	21520	12706.814690348114	1
0	21521	12707.183521745557	0
0	21525	12707.542738722134	1
0	21526	12708.921663892845	0
0	21535	12721.99206362922	1
0	21536	12722.109500298808	0
0	21545	12724.690112454475	1
0	21546	12725.673333784567	0
0	21625	12797.794130270905	1
0	21627	12798.346874700824	2
0	21628	12799.296152505808	1
0	21631	12800.57080900126	0
0	21635	12800.607415346333	1
0	21636	12802.508321023331	0
0	21720	12895.096155961082	1
0	21721	12895.652119126602	0
0	21750	12934.851079753352	1
0	21751	12935.671209472925	0
0	21760	12941.534618612619	1
0	21761	12941.939341977506	0
0	21790	12962.031480939917	1
0	21792	12962.765887335335	2
0	21793	12962.909829217052	1
0	21796	12964.413219642123	0
0	21800	12965.139926772177	1
0	21801	12965.979615951372	0
0	21805	12967.199677447167	1
0	21806	12967.718798452658	0
0	21810	12968.323986327405	1
0	21811	12969.648526381371	0
0	21815	12970.207526636813	1
0	21816	12971.038213058231	0
0	21845	13000.215529588443	1
0	21846	13001.606989981611	0
0	21885	13046.877071493567	1
0	21887	13047.870448463484	2
0	21888	13048.268122769466	1
0	21891	13049.548447086981	0
0	21900	13052.821571464099	1
0	21901	13054.357922899332	0
0	21930	13075.039089550631	1
0	21931	13076.510587268043	0
0	21940	13079.063634715288	1
0	21941	13079.669159448053	0
0	21950	13083.665489989572	1
0	21951	13083.769043567589	0
0	21957	13085.207946010439	1
0	21958	13085.33359801974	0
0	21965	13087.009352087768	1
0	21967	13087.375890396899	2
0	21969	13087.700539681726	3
0	21970	13088.192064253798	2
0	21973	13089.593469698539	1
0	21977	13091.012971744817	2
0	21978	13091.290921316108	1
0	21981	13092.517284861019	0
0	21985	13092.764219792645	1
0	21986	13093.884375871157	0
0	21995	13097.598065266016	1
0	21998	13098.391959676085	0
0	22002	13098.784592513584	1
0	22003	13099.676415429575	0
0	22010	13101.631877986425	1
0	22011	13102.673533079525	0
0	22025	13108.826080663554	1
0	22026	13109.472836317983	0
0	22045	13115.510059684187	1
0	22046	13116.578754123567	0
0	22055	13118.980629100994	1
0	22056	13119.8849985898	0
0	22060	13120.347528216334	1
0	22062	13121.198909338922	2
0	22063	13121.452630314463	1
0	22067	13121.620875901382	2
0	22069	13121.855620594808	3
0	22070	13122.907610928872	2
0	22074	13123.032281571244	3
0	22075	13124.173905332619	2
0	22078	13125.522312578233	1
0	22081	13127.296637205081	0
0	22095	13132.183104177371	1
0	22096	13132.743534117667	0
0	22115	13144.263681145144	1
0	22116	13146.092797626651	0
0	22135	13155.544995389127	1
0	22136	13156.055441429471	0
0	22190	13209.057784027825	1
0	22191	13210.66255057312	0
0	22195	13210.74010611749	1
0	22199	13211.068362245911	2
0	22200	13212.567679710941	1
0	22203	13213.90128995336	0
0	22215	13218.575740902263	1
0	22217	13218.647592620843	2
0	22218	13219.032740960958	1
0	22221	13221.011700524519	0
0	22250	13249.804550752087	1
0	22251	13251.131747612656	0
0	22260	13254.344986396796	1
0	22261	13255.6014689251	0
0	22300	13292.934601255822	1
0	22301	13293.860535019984	0
0	22320	13301.979761840343	1
0	22321	13303.00528535321	0
0	22360	13344.961128302716	1
0	22362	13345.438713378394	2
0	22363	13345.727385372093	1
0	22368	13347.250722174143	0
0	22372	13349.003834970995	1
0	22373	13349.015522319434	0
0	22377	13350.246621223106	1
0	22378	13350.254854399135	0
0	22382	13351.425980329029	1
0	22383	13351.500774016959	0
0	22387	13351.764113400088	1
0	22389	13352.626035253467	2
0	22390	13353.384586043266	1
0	22394	13353.486253864695	2
0	22395	13355.227379895916	1
0	22398	13356.730906188285	0
0	22402	13357.148336149022	1
0	22404	13357.972927509171	2
0	22405	13358.065108687041	1
0	22408	13359.42522555588	0
0	22412	13360.381782975832	1
0	22413	13360.642591597682	0
0	22417	13361.283195665862	1
0	22418	13362.297334800644	0
0	22422	13363.351842702146	1
0	22423	13364.045953293873	0
0	22427	13364.523605233943	1
0	22428	13365.403057102842	0
0	22432	13365.58028950133	1
0	22433	13366.962260615622	0
0	22440	13369.295899028162	1
0	22442	13370.153662616378	2
0	22443	13370.54976482818	1
0	22446	13372.019265948218	0
0	22455	13373.554105981941	1
0	22458	13374.937848780473	0
0	22475	13380.582884459913	1
0	22476	13382.184874158092	0
0	22485	13384.107342540164	1
0	22487	13384.821184505686	2
0	22488	13385.607705983818	1
0	22491	13387.054974802696	0
0	22497	13388.237898412186	1
0	22499	13388.698297287997	2
0	22500	13389.05017676551	1
0	22503	13390.286126007625	0
0	22510	13392.945989695847	1
0	22511	13393.481175629721	0
0	22520	13395.655744826681	1
0	22522	13396.605307506559	2
0	22523	13396.661625412964	1
0	22526	13398.443121159003	0
0	22540	13413.756168676821	1
0	22541	13414.968502446694	0
0	22580	13472.287510715461	1
0	22581	13473.898205965648	0
0	22615	13497.642049296427	1
0	22616	13497.970378604249	0
0	22630	13505.180583290396	1
0	22632	13505.785399420287	2
0	22633	13506.816047537582	1
0	22637	13507.664071771072	2
0	22638	13508.559593685785	1
0	22642	13509.856570262193	2
0	22643	13510.533087618904	1
0	22647	13510.979321030556	2
0	22648	13512.420868024485	1
0	22652	13512.844718764103	2
0	22653	13513.835176760213	1
0	22656	13515.146937723713	0
0	22660	13515.488168417963	1
0	22662	13516.139592483454	2
0	22663	13516.900269923242	1
0	22667	13517.680267270243	2
0	22668	13518.648316823201	1
0	22671	13520.014933260413	0
0	22690	13529.586661910889	1
0	22693	13530.801810838196	0
0	22697	13530.896126424597	1
0	22699	13530.91828311822	2
0	22700	13532.523813123542	1
0	22704	13532.82697227048	2
0	22709	13534.090953502718	1
0	22713	13534.546372341919	2
0	22715	13534.673404952468	3
0	22716	13535.577764219332	2
0	22720	13536.036090392401	3
0	22721	13536.82547748192	2
0	22724	13538.506492850471	1
0	22728	13539.64244315104	2
0	22729	13540.278214400548	1
0	22733	13540.521915955209	2
0	22735	13540.601752504142	3
0	22736	13542.224611082587	2
0	22739	13543.54859423219	1
0	22742	13545.361516453426	0
0	22770	13557.418691781397	1
0	22771	13559.1209320199	0
0	22775	13559.140326239655	1
0	22776	13560.661741299021	0
0	22800	13573.750372688321	1
0	22801	13573.951525754459	0
0	22805	13574.242906390878	1
0	22806	13575.247271738365	0
0	22810	13575.742617210171	1
0	22812	13576.936315280512	2
0	22813	13577.158655480832	1
0	22816	13578.794939713344	0
0	22825	13582.041348246403	1
0	22826	13583.114403367337	0
0	22830	13583.807946273476	1
0	22831	13584.395660525482	0
0	22835	13584.462603352326	1
0	22836	13585.825656454932	0
0	22865	13597.445495118232	1
0	22866	13597.564629328579	0
0	22875	13599.865600565269	1
0	22876	13601.218629204996	0
0	22885	13607.358709168166	1
0	22888	13608.456520389139	0
0	22895	13610.759787783866	1
0	22898	13612.097349542498	0
0	22907	13614.031708532799	1
0	22908	13614.777211875774	0
0	22912	13615.092153913357	1
0	22913	13616.012522753261	0
0	22917	13616.589829159581	1
0	22918	13617.344170359641	0
0	22922	13617.563525451861	1
0	22923	13618.909170603871	0
0	22927	13618.997808619558	1
0	22931	13620.612950885728	2
0	22932	13620.687756690316	1
0	22936	13621.871926397151	2
0	22937	13622.373572264731	1
0	22940	13624.107580111668	0
0	22944	13625.338622974802	1
0	22945	13625.339747269385	0
0	22949	13626.282327888145	1
0	22950	13626.757553486646	0
0	22957	13629.306752211549	1
0	22958	13630.041572307729	0
0	22962	13630.844188423203	1
0	22965	13631.448122370549	0
0	23005	13657.102900142965	1
0	23006	13657.842447589522	0
0	23010	13658.231007447793	1
0	23011	13659.681206695361	0
0	23025	13665.780313700456	1
0	23026	13666.238628850334	0
0	23035	13670.02048350227	1
0	23036	13671.295508567648	0
0	23040	13671.645974162104	1
0	23041	13672.972930650817	0
0	23060	13681.282690268565	1
0	23061	13681.59631289409	0
0	23070	13683.863227627599	1
0	23072	13684.390482242798	2
0	23073	13684.486843186594	1
0	23076	13685.993204653054	0
0	23100	13705.187317355429	1
0	23101	13706.530856723894	0
0	23120	13716.047941314799	1
0	23121	13716.208127495918	0
0	23125	13717.4022456683	1
0	23126	13717.804215805504	0
0	23150	13732.23919265073	1
0	23151	13732.665413140439	0
0	23180	13748.337395333948	1
0	23181	13748.648626258569	0
0	23190	13753.754307325404	1
0	23191	13754.012486504708	0
0	23202	13756.735054761752	1
0	23203	13757.310852507633	0
0	23214	13759.301099794908	1
0	23216	13760.058787715778	2
0	23217	13760.458221700919	1
0	23221	13760.479876545498	2
0	23224	13761.782082251777	1
0	23228	13762.400891154514	2
0	23229	13763.013794196715	1
0	23233	13763.941564792552	2
0	23234	13764.602344066223	1
0	23237	13765.991564799605	0
0	23272	13794.958943744755	1
0	23273	13795.65734848604	0
0	23277	13796.249967897075	1
0	23278	13797.294397419881	0
0	23325	13843.82535444711	1
0	23326	13843.921863061075	0
0	23345	13875.484603261652	1
0	23346	13877.282893582632	0
0	23350	13877.771699133487	1
0	23351	13878.80655770806	0
0	23360	13881.632572900621	1
0	23361	13881.638442076383	0
0	23370	13886.17838512525	1
0	23371	13887.252156020452	0
0	23375	13888.815537839435	1
0	23376	13888.848384334457	0
0	23380	13889.506314853764	1
0	23381	13890.214020866279	0
0	23385	13891.300521366336	1
0	23386	13891.935691379507	0
0	23405	13909.34357903092	1
0	23406	13909.967419728066	0
0	23435	13928.750050154776	1
0	23436	13929.54529903448	0
0	23440	13931.093648747875	1
0	23441	13931.153235647928	0
0	23445	13931.375492552131	1
0	23448	13932.794602106985	0
0	23455	13934.309519114138	1
0	23457	13935.002805559703	2
0	23458	13935.933336376872	1
0	23463	13937.712387967583	0
0	23467	13937.775237522423	1
0	23468	13939.650830789943	0
0	23475	13941.479823633495	1
0	23476	13942.612199623052	0
0	23482	13944.157745649615	1
0	23483	13944.16133209626	0
0	23487	13945.221388815887	1
0	23488	13945.98699160042	0
0	23492	13946.085705210317	1
0	23493	13947.670030222933	0
0	23497	13948.005668241265	1
0	23498	13949.049489671278	0
0	23515	13969.333473191921	1
0	23516	13969.55663075618	0
0	23525	13975.135576898281	1
0	23526	13975.487954357625	0
0	23530	13975.994277753888	1
0	23531	13976.81693651861	0
0	23550	13989.618242006577	1
0	23551	13989.925192284666	0
0	23565	13995.700791276581	1
0	23567	13995.792918175104	2
0	23568	13996.451571826305	1
0	23571	13997.721686273854	0
0	23580	13999.837909494238	1
0	23581	14001.191847869732	0
0	23615	14018.530131713087	1
0	23616	14018.552954103965	0
0	23630	14038.499252042353	1
0	23631	14038.637802075279	0
0	23635	14038.921894534564	1
0	23636	14040.189045073521	0
0	23640	14040.873318471726	1
0	23641	14041.961856665332	0
0	23645	14042.313315879592	1
0	23647	14042.916606683582	2
0	23648	14043.456086437833	1
0	23652	14044.325269174401	2
0	23654	14044.385600563764	3
0	23656	14044.560788109918	4
0	23658	14044.578254512174	5
0	23659	14045.130865262691	4
0	23662	14046.527387859728	3
0	23668	14047.00107537964	4
0	23669	14047.770936420988	3
0	23673	14048.778241864409	4
0	23675	14048.960004857082	5
0	23676	14049.437701142821	4
0	23680	14050.324127673677	5
0	23682	14050.400739114857	6
0	23683	14051.113078728746	5
0	23687	14051.978943639517	6
0	23688	14052.874133804868	5
0	23692	14053.768455504927	6
0	23693	14054.759296920951	5
0	23697	14055.482670996099	6
0	23698	14056.57889187118	5
0	23702	14057.362512450857	6
0	23703	14058.350542725306	5
0	23706	14059.718192386683	4
0	23710	14061.036992005783	5
0	23711	14061.037262019012	4
0	23714	14062.7175436447	3
0	23717	14064.574505710099	2
0	23720	14066.120774161313	1
0	23723	14068.069907079321	0
0	23770	14101.022871496823	1
0	23771	14102.722593057926	0
0	23780	14106.955819441314	1
0	23781	14107.490198698772	0
0	23785	14107.727468047641	1
0	23788	14109.039930485694	0
0	23792	14109.342752709569	1
0	23793	14110.328658475859	0
0	23815	14128.587627535399	1
0	23816	14129.675737699716	0
0	23890	14223.237060667822	1
0	23891	14224.647108340558	0
0	23915	14281.027870489041	1
0	23916	14281.914817505715	0
0	23930	14289.117818351298	1
0	23931	14290.280679921814	0
0	23965	14307.68399751536	1
0	23966	14308.24962905228	0
0	24015	14353.320996585369	1
0	24016	14353.666760729767	0
0	24020	14353.980591276688	1
0	24022	14354.79941802072	2
0	24023	14355.215672975361	1
0	24026	14356.480811751961	0
0	24030	14356.884722572023	1
0	24031	14358.339754797473	0
0	24035	14358.439815936523	1
0	24036	14360.284513113789	0
0	24045	14385.475519112826	1
0	24046	14385.623037105221	0
0	24055	14388.478069380002	1
0	24056	14389.857478187388	0
0	24060	14390.997418404844	1
0	24061	14391.735323457575	0
0	24065	14393.014222525871	1
0	24066	14393.224016107774	0
0	24070	14393.238781648844	1
0	24071	14394.982557658634	0
0	24075	14395.582446346263	1
0	24076	14396.202293556339	0
0	24090	14417.098528271047	1
0	24091	14418.373593720338	0
0	24100	14421.697776039368	1
0	24101	14421.793813236161	0
0	24130	14445.323968572931	1
0	24131	14446.808346554888	0
0	24190	14492.308543498747	1
0	24192	14493.115125375598	2
0	24193	14493.966104089745	1
0	24198	14495.249836395585	0
0	24205	14497.601148746049	1
0	24206	14498.752351961562	0
0	24225	14504.606002430437	1
0	24226	14505.865375237915	0
0	24230	14506.550994274516	1
0	24232	14507.119348049528	2
0	24234	14507.215316546876	3
0	24235	14507.281506463516	2
0	24240	14508.870603913258	1
0	24244	14509.924534196504	2
0	24245	14510.083346374895	1
0	24248	14511.581614324081	0
0	24252	14512.16857684199	1
0	24254	14512.220145507638	2
0	24255	14513.252379882711	1
0	24259	14514.148930800703	2
0	24260	14515.119772559407	1
0	24264	14515.172915141017	2
0	24266	14516.513891131436	3
0	24267	14516.996955774913	2
0	24270	14518.199405732939	1
0	24274	14518.252035667372	2
0	24275	14520.084897624331	1
0	24279	14520.447374783773	2
0	24280	14521.751581738333	1
0	24284	14522.402148802637	2
0	24285	14523.575215972218	1
0	24289	14523.767488030782	2
0	24290	14524.861407657716	1
0	24294	14526.559595175278	2
0	24295	14526.734961597066	1
0	24299	14527.391556458406	2
0	24300	14528.187156996507	1
0	24304	14529.515860126233	2
0	24305	14530.090825939741	1
0	24308	14531.594097622488	0
0	24320	14540.627378947854	1
0	24321	14541.837922152981	0
0	24325	14543.13088143915	1
0	24326	14543.237029715732	0
0	24330	14544.352709718459	1
0	24331	14544.611229033128	0
0	24335	14545.311877201361	1
0	24336	14546.340415088937	0
0	24340	14546.38089270413	1
0	24342	14547.058773771802	2
0	24344	14547.07452720819	3
0	24345	14547.835486846708	2
0	24349	14548.085232336743	3
0	24350	14549.595051591017	2
0	24354	14549.656116163101	3
0	24355	14551.423154173338	2
0	24358	14553.270105305978	1
0	24362	14554.036877889462	2
0	24364	14554.79136140957	3
0	24365	14555.238421751664	2
0	24368	14556.506623505906	1
0	24372	14556.928275981625	2
0	24374	14557.856182755145	3
0	24375	14557.952667053708	2
0	24378	14559.37110316559	1
0	24382	14560.707066813233	2
0	24383	14561.188136816875	1
0	24389	14562.501508118663	2
0	24390	14562.773721462966	1
0	24394	14564.030632125037	2
0	24396	14564.317010359086	3
0	24397	14564.61668762985	2
0	24400	14566.11571220971	1
0	24403	14567.590487475985	0
0	24407	14568.466581099446	1
0	24408	14569.421760586755	0
0	24447	14581.686508638761	1
0	24448	14582.796544866373	0
0	24455	14585.669010863477	1
0	24456	14585.939099600648	0
0	24465	14591.693771819997	1
0	24466	14592.231788390611	0
0	24480	14597.190387300939	1
0	24481	14598.179091557856	0
0	24485	14598.57356652291	1
0	24487	14599.279935364865	2
0	24489	14599.507172426404	3
0	24490	14599.636963538262	2
0	24494	14599.827039246663	3
0	24496	14601.323827001302	4
0	24497	14601.381097985613	3
0	24501	14602.36922621265	4
0	24502	14603.188307635668	3
0	24505	14604.449140850823	2
0	24509	14604.871255567676	3
0	24511	14606.183868889131	4
0	24512	14606.358005168844	3
0	24516	14607.037080530927	4
0	24517	14607.624409077127	3
0	24522	14609.396240171787	2
0	24526	14609.744697633638	3
0	24527	14610.902872039002	2
0	24530	14612.65166558027	1
0	24534	14613.068473849723	2
0	24535	14614.338471083154	1
0	24539	14615.764789576817	2
0	24540	14616.076645237763	1
0	24544	14616.134671380014	2
0	24545	14617.700732185875	1
0	24549	14618.364357390098	2
0	24550	14619.429730081555	1
0	24553	14621.412655025159	0
0	24557	14622.357111933972	1
0	24559	14623.145278687045	2
0	24560	14623.30751772802	1
0	24563	14624.923108002354	0
0	24567	14626.007155178335	1
0	24568	14626.433210031871	0
0	24572	14627.028064748856	1
0	24573	14627.834439104606	0
0	24580	14630.188159370853	1
0	24581	14630.612934082557	0
0	24610	14646.600903381965	1
0	24611	14647.660047896524	0
0	24640	14703.241130928887	1
0	24641	14704.402461166983	0
0	24645	14704.448841991095	1
0	24646	14705.919677037863	0
0	24650	14705.968394599355	1
0	24651	14707.177099910682	0
0	24680	14728.455662095076	1
0	24681	14729.307324693773	0
0	24715	14758.348403102438	1
0	24716	14759.332904651257	0
0	24730	14766.492042561433	1
0	24731	14766.551703252731	0
0	24740	14768.897164254174	1
0	24741	14769.938402245749	0
0	24745	14770.181432093955	1
0	24748	14771.824798586961	0
0	24752	14773.395265047866	1
0	24753	14773.765994041409	0
0	24765	14778.259028635381	1
0	24766	14778.694887101497	0
0	24770	14779.331263841386	1
0	24771	14780.051198709975	0
0	24810	14822.791024835582	1
0	24812	14822.985291956329	2
0	24813	14824.1995642487	1
0	24817	14825.410694956877	2
0	24818	14825.449655817826	1
0	24822	14825.558605553425	2
0	24823	14826.894461889756	1
0	24827	14827.224379845215	2
0	24828	14828.891350872819	1
0	24832	14830.309670658449	2
0	24833	14830.32725085095	1
0	24836	14831.762420061049	0
0	24850	14840.187668324145	1
0	24851	14841.381103779563	0
0	24895	14881.968600684073	1
0	24897	14882.336868723428	2
0	24898	14882.945111459449	1
0	24901	14884.935945467047	0
0	24910	14889.657296278653	1
0	24911	14889.982465393296	0
0	24915	14890.724964846144	1
0	24917	14890.848165940814	2
0	24918	14891.566393868825	1
0	24922	14892.237986186554	2
0	24923	14892.770176088078	1
0	24927	14893.415304501269	2
0	24928	14894.105894843502	1
0	24931	14895.74545643126	0
0	24940	14897.995762490975	1
0	24941	14899.048624534904	0
0	24945	14899.049679173755	1
0	24947	14899.345783830412	2
0	24950	14900.861515491827	1
0	24954	14902.008401454006	2
0	24955	14902.389057320355	1
0	24958	14904.086410712822	0
0	24962	14904.43320597033	1
0	24963	14905.570650284922	0
0	24995	14926.240336723282	1
0	24996	14927.339135811459	0
0	25005	14932.158230625299	1
0	25006	14933.441915419894	0
0	25010	14933.882095893031	1
0	25011	14935.033151757168	0
0	25060	15008.959821027415	1
0	25061	15010.322073870898	0
0	25085	15037.11030079969	1
0	25086	15037.552540415457	0
0	25130	15072.081419031505	1
0	25131	15072.685155397614	0
0	25140	15075.183198456267	1
0	25141	15075.90700088076	0
0	25145	15076.420797609299	1
0	25146	15077.786660898362	0
0	25160	15088.94478741768	1
0	25161	15089.662511574577	0
0	25180	15097.273549100351	1
0	25181	15098.139666513077	0
0	25185	15099.132721839412	1
0	25186	15099.98563476438	0
0	25215	15112.139586653653	1
0	25216	15113.415603539977	0
0	25222	15114.75077040809	1
0	25223	15115.250703604404	0
0	25227	15115.774159131679	1
0	25228	15116.795817143913	0
0	25232	15117.365440449423	1
0	25233	15118.615799707058	0
0	25240	15120.968043068454	1
0	25241	15121.576341957855	0
0	25245	15122.42222452902	1
0	25246	15122.87404066443	0
0	25265	15142.44120897128	1
0	25268	15143.830291789794	0
0	25272	15143.977027061728	1
0	25273	15145.298835781799	0
0	25277	15146.190497453966	1
0	25278	15146.794761313335	0
0	25300	15164.683717756012	1
0	25301	15166.586694893852	0
0	25325	15192.459474662229	1
0	25326	15194.006450946855	0
0	25355	15226.521855032419	1
0	25356	15227.004921540679	0
0	25365	15236.472769671408	1
0	25366	15237.274494432033	0
0	25392	15281.327848446292	1
0	25393	15282.339107654124	0
0	25430	15326.941914257489	1
0	25431	15326.961564022199	0
0	25442	15328.830315908788	1
0	25443	15330.287855440275	0
0	25465	15339.360988217793	1
0	25466	15340.733221514055	0
0	25480	15345.335491174714	1
0	25481	15346.337990933365	0
0	25487	15347.678521585033	1
0	25490	15348.293386214866	0
0	25494	15349.270332424546	1
0	25495	15349.558863383799	0
0	25505	15353.040692776515	1
0	25507	15353.445219663996	2
0	25508	15354.228996119729	1
0	25514	15355.568396687591	2
0	25515	15355.715994582779	1
0	25519	15355.887898182431	2
0	25520	15357.615586680441	1
0	25524	15358.188093518976	2
0	25525	15358.904204780689	1
0	25528	15360.605879820778	0
0	25540	15365.8283861322	1
0	25541	15366.726551479084	0
0	25545	15366.831397616109	1
0	25546	15368.393798238394	0
0	25570	15390.104830766656	1
0	25571	15390.163235815324	0
0	25580	15393.625203493147	1
0	25581	15394.813388495244	0
0	25595	15402.380644294957	1
0	25596	15402.944548333632	0
0	25600	15403.538675395457	1
0	25601	15404.357830688739	0
0	25605	15404.765231300487	1
0	25606	15405.885417150529	0
0	25612	15406.88039353632	1
0	25613	15407.657625148268	0
0	25620	15409.581559025692	1
0	25621	15411.007331608245	0
0	25660	15438.976316215631	1
0	25661	15439.369288940184	0
0	25695	15459.334788388446	1
0	25696	15461.031350853662	0
0	25737	15480.225490896389	1
0	25738	15480.998897781419	0
0	25742	15481.190190361845	1
0	25744	15482.423244838565	2
0	25745	15482.854309760044	1
0	25749	15483.523684517523	2
0	25750	15484.223225826221	1
0	25753	15485.844620971764	0
0	25760	15488.352044029348	1
0	25761	15488.568917373391	0
0	25770	15492.195574676483	1
0	25771	15492.339223246659	0
0	25775	15493.056480479058	1
0	25776	15494.162854968021	0
0	25780	15494.799950804214	1
0	25782	15495.739065719905	2
0	25783	15496.02656817046	1
0	25786	15497.682508648196	0
0	25790	15498.70739503203	1
0	25791	15499.209554943265	0
0	25795	15499.678503242604	1
0	25797	15500.574736652326	2
0	25798	15501.128212132686	1
0	25802	15501.3731740867	2
0	25803	15502.355131205366	1
0	25809	15503.699370781493	2
0	25810	15503.928600780674	1
0	25813	15505.394894037404	0
0	25820	15508.112742602553	1
0	25821	15508.788384152585	0
0	25825	15510.166448213057	1
0	25826	15510.200457668127	0
0	25830	15511.605072713765	1
0	25831	15511.68533239291	0
0	25835	15512.267841543672	1
0	25836	15513.462477914812	0
0	25860	15536.403739707966	1
0	25861	15537.322919603043	0
0	25865	15537.444221316149	1
0	25866	15539.200055905037	0
0	25875	15542.190308224584	1
0	25878	15543.436183117579	0
0	25882	15543.5088404332	1
0	25884	15545.201554170317	2
0	25885	15545.329643275279	1
0	25889	15545.976733978932	2
0	25890	15547.298019291337	1
0	25893	15549.018857005301	0
0	25900	15550.79669489865	1
0	25902	15551.758039632696	2
0	25903	15552.082080079305	1
0	25908	15553.910944222908	0
0	25912	15554.932336017805	1
0	25913	15555.331751962628	0
0	25917	15556.28187992381	1
0	25918	15557.252313832443	0
0	25975	15602.101223884089	1
0	25976	15602.415936682721	0
0	26025	15631.812445022866	1
0	26027	15632.669017417574	2
0	26028	15633.049097699736	1
0	26031	15634.834578783315	0
0	26045	15639.234125258259	1
0	26046	15640.209954091645	0
0	26085	15662.89909807312	1
0	26086	15664.084431724501	0
0	26105	15670.984255903096	1
0	26106	15672.610425414038	0
0	26110	15673.154081874578	1
0	26111	15674.159085935992	0
0	26125	15679.42013372184	1
0	26126	15680.215564391299	0
0	26130	15680.937789116927	1
0	26131	15681.879659594691	0
0	26150	15689.034452722181	1
0	26151	15690.096345549201	0
0	26155	15690.345043680023	1
0	26157	15690.616964318518	2
0	26159	15690.739795040197	3
0	26160	15691.493505186898	2
0	26166	15691.688174761332	3
0	26167	15692.956125475963	2
0	26171	15693.265272353487	3
0	26172	15694.292968970289	2
0	26177	15695.98679803585	1
0	26181	15696.881877794916	2
0	26182	15697.983296806117	1
0	26185	15699.239372727585	0
0	26189	15699.83566090566	1
0	26190	15701.196393881117	0
0	26194	15702.392400310283	1
0	26195	15703.083759509523	0
0	26202	15704.861477915519	1
0	26204	15706.062621458217	2
0	26205	15706.090633272875	1
0	26208	15707.694027310919	0
0	26212	15707.910492450123	1
0	26213	15708.920036902029	0
0	26217	15709.734089699008	1
0	26219	15710.077666244696	2
0	26220	15710.354038670782	1
0	26224	15710.917367310219	2
0	26225	15711.608770836081	1
0	26228	15712.884434891428	0
0	26232	15713.510547740799	1
0	26234	15713.523008631534	2
0	26236	15713.645128582618	3
0	26238	15713.64551955526	4
0	26239	15714.846503656293	3
0	26243	15714.870849706898	4
0	26244	15716.311775600473	3
0	26247	15717.691461383673	2
0	26251	15717.754235619305	3
0	26253	15718.130267015154	4
0	26254	15719.476025955501	3
0	26258	15719.602038428512	4
0	26259	15720.914020816918	3
0	26262	15722.587903888646	2
0	26266	15722.730342375547	3
0	26268	15722.870554728739	4
0	26269	15724.481800574559	3
0	26273	15725.19311459444	4
0	26274	15725.796361312206	3
0	26278	15727.558313663265	4
0	26279	15727.770551600243	3
0	26283	15729.158065748497	4
0	26284	15729.402533093031	3
0	26288	15729.874849647561	4
0	26289	15731.077993712883	3
0	26292	15732.359367868613	2
0	26296	15732.548563086665	3
0	26298	15732.949453518383	4
0	26299	15733.729131528858	3
0	26302	15734.93002350175	2
0	26305	15736.715676489409	1
0	26309	15737.317636246762	2
0	26310	15738.654875867378	1
0	26314	15738.665274103801	2
0	26316	15739.163869079167	3
0	26317	15739.86798461837	2
0	26321	15741.155442688238	3
0	26322	15741.342351375085	2
0	26325	15743.23328159259	1
0	26329	15743.676547774858	2
0	26331	15743.98512550701	3
0	26332	15744.937814422448	2
0	26336	15746.38243297983	3
0	26337	15746.549449593325	2
0	26340	15748.214002640297	1
0	26344	15749.52312957218	2
0	26345	15749.652613843729	1
0	26348	15751.129932578032	0
0	26352	15752.903496818715	1
0	26353	15752.964071652045	0
0	26360	15755.406244524678	1
0	26361	15755.880471164485	0
0	26410	15800.19909138705	1
0	26411	15800.750485883953	0
0	26460	15837.10228350028	1
0	26461	15838.252638129665	0
0	26470	15841.296581852595	1
0	26472	15841.540759292382	2
0	26474	15841.709765782252	3
0	26475	15842.357188221199	2
0	26478	15844.312906924394	1
0	26481	15846.146858666969	0
0	26485	15848.033412861514	1
0	26487	15848.08591985621	2
0	26488	15848.086803479252	1
0	26491	15849.544169409519	0
0	26500	15851.934226314818	1
0	26501	15853.386838748463	0
0	26505	15853.862864104803	1
0	26506	15855.327348256641	0
0	26510	15855.873436048466	1
0	26511	15857.102413039067	0
0	26517	15857.266846818482	1
0	26519	15857.440031144961	2
0	26520	15858.405919710146	1
0	26524	15858.584440507906	2
0	26526	15858.780345943777	3
0	26527	15859.959826055327	2
0	26530	15861.220211934642	1
0	26533	15863.136029277154	0
0	26550	15870.868901658732	1
0	26551	15872.816367858481	0
0	26625	15936.450012858743	1
0	26626	15938.186424127152	0
0	26630	15938.373583285506	1
0	26631	15940.049189371547	0
0	26640	15942.038185464586	1
0	26641	15943.013853867535	0
0	26655	15949.338772638861	1
0	26656	15949.343551108189	0
0	26680	15965.52085291976	1
0	26681	15966.637630870229	0
0	26685	15967.246011343837	1
0	26686	15968.195152977517	0
0	26690	15969.014895093208	1
0	26691	15969.621691677196	0
0	26715	15995.1980494176	1
0	26716	15996.598940232935	0
0	26740	16028.644062368896	1
0	26741	16030.029351573806	0
0	26750	16034.078217627945	1
0	26751	16035.427444111515	0
0	26755	16036.394721093864	1
0	26756	16037.028752040636	0
0	26760	16037.230845214311	1
0	26762	16037.844112581249	2
0	26763	16038.606708238792	1
0	26766	16040.327221229818	0
0	26770	16040.507065485699	1
0	26772	16041.575324893758	2
0	26773	16042.207228096161	1
0	26777	16042.303090910761	2
0	26778	16043.875019052025	1
0	26781	16045.748113271926	0
0	26810	16057.40807145306	1
0	26811	16058.982909219233	0
0	26815	16059.410090367506	1
0	26817	16060.600105499812	2
0	26818	16060.740258435798	1
0	26821	16062.032199788359	0
0	26825	16062.04256227973	1
0	26827	16062.09009459145	2
0	26828	16063.773051321958	1
0	26832	16064.641769734558	2
0	26835	16065.743955775429	1
0	26838	16067.493485312242	0
0	26842	16069.276283600695	1
0	26843	16069.379047581445	0
0	26847	16070.437582349227	1
0	26848	16070.835992116559	0
0	26852	16070.869749818306	1
0	26854	16071.204943272073	2
0	26855	16072.755331353921	1
0	26859	16073.070953693958	2
0	26860	16074.002057980638	1
0	26863	16075.631900974441	0
0	26867	16077.086372085945	1
0	26868	16077.185811786245	0
0	26872	16077.814708322765	1
0	26873	16078.797817596685	0
0	26877	16078.947824144756	1
0	26879	16079.147400384673	2
0	26881	16079.701779484539	3
0	26882	16080.286781314839	2
0	26886	16081.16397177266	3
0	26887	16082.243102777828	2
0	26891	16082.952029545161	3
0	26892	16084.155681595844	2
0	26896	16084.189282533667	3
0	26897	16085.592848292631	2
0	26900	16087.194884597589	1
0	26904	16088.579187563754	2
0	26905	16088.781022765566	1
0	26909	16089.20094384786	2
0	26910	16090.599373411093	1
0	26913	16092.084869377393	0
0	26917	16092.681685746992	1
0	26918	16094.024312659245	0
0	26940	16111.124121257827	1
0	26941	16111.342971270989	0
0	26955	16116.005330761185	1
0	26956	16116.084019226972	0
0	27005	16170.195954926019	1
0	27008	16171.911485211278	0
0	27015	16173.992929556371	1
0	27016	16174.887376831013	0
0	27025	16177.62350655856	1
0	27026	16177.940482133727	0
0	27035	16180.359544608116	1
0	27036	16181.408337122971	0
0	27045	16183.254231795283	1
0	27046	16184.058620677019	0
0	27060	16195.507525578703	1
0	27061	16196.719262375749	0
0	27085	16212.364764930311	1
0	27086	16213.011789786143	0
0	27090	16214.062660988153	1
0	27091	16214.683324766604	0
0	27105	16223.398618129874	1
0	27106	16224.127640918585	0
0	27110	16224.711258621847	1
0	27111	16225.745696559305	0
0	27115	16226.66069693429	1
0	27117	16226.953508207727	2
0	27118	16227.192874402309	1
0	27122	16227.430439125058	2
0	27123	16229.099373938831	1
0	27127	16230.037122060312	2
0	27128	16230.891490893567	1
0	27132	16232.066567276376	2
0	27133	16232.67252423385	1
0	27137	16233.239921948428	2
0	27139	16233.830355310013	3
0	27140	16233.995590367111	2
0	27144	16235.283888425092	3
0	27145	16235.501347839961	2
0	27148	16236.925946326496	1
0	27152	16237.796150393784	2
0	27153	16238.685388894694	1
0	27157	16240.17873213933	2
0	27158	16240.358244481625	1
0	27161	16242.231088686304	0
0	27165	16242.85077309775	1
0	27166	16244.039406072663	0
0	27190	16261.092490367356	1
0	27191	16262.231462757217	0
0	27225	16274.011504056627	1
0	27226	16275.23544321378	0
0	27235	16279.075450863199	1
0	27236	16279.647707100861	0
0	27262	16288.450743680439	1
0	27263	16288.978221687853	0
0	27267	16289.043886386159	1
0	27269	16289.723108597118	2
0	27270	16290.200794800549	1
0	27274	16290.609047841828	2
0	27275	16291.673264816023	1
0	27279	16292.634987621351	2
0	27280	16293.50753440912	1
0	27284	16294.97516465409	2
0	27285	16295.223150010399	1
0	27288	16296.882146602675	0
0	27292	16297.443516538917	1
0	27294	16298.302904088145	2
0	27295	16298.498463769622	1
0	27299	16298.732018081829	2
0	27300	16299.77616407647	1
0	27304	16300.287578221779	2
0	27305	16301.699725267098	1
0	27308	16303.22984773367	0
0	27315	16305.151640286917	1
0	27318	16306.404992054583	0
0	27327	16308.150103323097	1
0	27328	16309.482015614764	0
0	27335	16311.497024301304	1
0	27336	16313.437224323668	0
0	27345	16315.671616264006	1
0	27346	16316.509734402031	0
0	27355	16317.725061358404	1
0	27356	16319.333168906339	0
0	27365	16323.201847397247	1
0	27366	16323.459361551547	0
0	27370	16323.918792552134	1
0	27371	16324.664027994157	0
0	27375	16325.116063860524	1
0	27376	16326.122085082562	0
0	27410	16347.45636148581	1
0	27411	16347.548071792652	0
0	27425	16359.804817254478	1
0	27426	16360.554250105169	0
0	27430	16361.622577991455	1
0	27431	16362.274529439655	0
0	27465	16405.712898817278	1
0	27466	16406.286685694758	0
0	27480	16416.564998064463	1
0	27481	16417.719949029776	0
0	27495	16424.520869085485	1
0	27496	16425.579868693437	0
0	27500	16425.996102556751	1
0	27501	16427.079659729797	0
0	27505	16428.217446162548	1
0	27506	16428.356794497903	0
0	27550	16460.291934747435	1
0	27551	16460.36861924484	0
0	27565	16468.132975903317	1
0	27566	16468.58481631525	0
0	27700	16614.722971767369	1
0	27701	16616.084769564763	0
0	27725	16647.369778455621	1
0	27727	16647.386126029516	2
0	27728	16648.461241914108	1
0	27731	16650.114352565966	0
0	27750	16665.379376276403	1
0	27751	16665.980847117653	0
0	27755	16667.199416541453	1
0	27757	16667.533477697103	2
0	27758	16667.949359094513	1
0	27761	16669.947281951619	0
0	27765	16670.154463467971	1
0	27766	16671.67678338827	0
0	27775	16697.391886937714	1
0	27777	16697.644367115051	2
0	27778	16698.100449979478	1
0	27782	16698.866808195031	2
0	27783	16699.394762373702	1
0	27788	16700.822044181065	0
0	27795	16703.043819337845	1
0	27796	16703.69606782029	0
0	27810	16724.940606335955	1
0	27812	16725.116016563829	2
0	27813	16725.719160421426	1
0	27816	16727.62641499159	0
0	27820	16728.592746875233	1
0	27821	16729.383253464523	0
0	27860	16786.155719406169	1
0	27861	16786.472149075554	0
0	27870	16788.540648187591	1
0	27872	16789.677199626569	2
0	27873	16789.903493623363	1
0	27877	16791.41713062298	2
0	27878	16791.490799275341	1
0	27882	16791.781822720774	2
0	27883	16792.817646278741	1
0	27887	16792.824245833025	2
0	27889	16792.83974307507	3
0	27895	16794.378956583223	4
0	27896	16794.47188582767	3
0	27900	16795.861152742438	4
0	27901	16795.933854520248	3
0	27904	16797.497484384218	2
0	27908	16798.295984072824	3
0	27909	16798.748835766429	2
0	27912	16800.374196311572	1
0	27916	16800.764270794212	2
0	27918	16800.894156014197	3
0	27919	16801.809288693705	2
0	27923	16801.8302768682	3
0	27925	16802.183527077112	4
0	27926	16803.128844943197	3
0	27930	16803.26205823722	4
0	27931	16804.839775892274	3
0	27934	16806.836981418283	2
0	27937	16808.12937733505	1
0	27940	16809.566346100458	0
0	27947	16811.218615148141	1
0	27948	16812.292945440972	0
0	27955	16814.997837670758	1
0	27956	16815.696505793298	0
0	27965	16817.5465566872	1
0	27966	16818.697681114378	0
0	28000	16853.59815033675	1
0	28001	16853.929172586502	0
0	28005	16854.395174124041	1
0	28006	16855.415262843335	0
0	28010	16856.382665424663	1
0	28011	16856.878180815877	0
0	28020	16858.68487454839	1
0	28022	16859.703429524314	2
0	28023	16859.771119599912	1
0	28026	16861.587963800627	0
0	28030	16862.391061416283	1
0	28031	16863.078156394447	0
0	28090	16894.576951032619	1
0	28091	16895.810265849934	0
0	28145	16949.324783462793	1
0	28146	16949.888316164266	0
0	28150	16950.077008159564	1
0	28151	16951.089735187504	0
0	28160	16955.581702448014	1
0	28161	16956.967699822526	0
0	28170	16961.878921829809	1
0	28171	16962.355005131285	0
0	28175	16962.941239315005	1
0	28176	16964.260804447341	0
0	28180	16965.326723958492	1
0	28181	16965.969985304396	0
0	28185	16966.209079329013	1
0	28187	16966.455039308725	2
0	28188	16967.537094033133	1
0	28191	16969.116354581151	0
0	28320	17056.540702047516	1
0	28321	17056.987503368215	0
0	28325	17057.328218580748	1
0	28327	17058.156639576148	2
0	28328	17058.230782105395	1
0	28332	17058.55735846529	2
0	28334	17059.211778939408	3
0	28335	17059.604629290284	2
0	28338	17061.331752833718	1
0	28342	17062.704927442804	2
0	28343	17062.781131668755	1
0	28347	17064.060530628299	2
0	28348	17064.3409928156	1
0	28351	17065.59837128985	0
0	28355	17066.02293345822	1
0	28356	17067.325743560673	0
0	28365	17070.16977588627	1
0	28366	17071.39071633629	0
0	28370	17071.90573829444	1
0	28371	17072.721147631849	0
0	28385	17080.06233465558	1
0	28386	17081.717723330943	0
0	28390	17082.25021174677	1
0	28391	17083.410082626989	0
0	28405	17088.095869760704	1
0	28407	17089.064167545385	2
0	28408	17089.874002861694	1
0	28412	17091.162662130888	2
0	28413	17091.208178176821	1
0	28416	17092.971194697262	0
0	28425	17095.998846092546	1
0	28426	17097.116011495608	0
0	28440	17108.542145847311	1
0	28441	17109.675713888772	0
0	28515	17167.404580296531	1
0	28517	17167.481285073257	2
0	28519	17167.570028784691	3
0	28520	17168.127838705244	2
0	28523	17169.99575785617	1
0	28527	17170.687618803269	2
0	28528	17171.654491744327	1
0	28532	17172.277815805084	2
0	28533	17173.155272050152	1
0	28536	17174.724142558823	0
0	28565	17219.721802609229	1
0	28566	17221.326934411022	0
0	28575	17224.596341182663	1
0	28576	17225.780375313365	0
0	28590	17240.907821932759	1
0	28591	17241.800069503762	0
0	28595	17242.174263730415	1
0	28596	17243.253773252756	0
0	28600	17243.79051496635	1
0	28601	17244.706346257866	0
0	28605	17244.860570609946	1
0	28606	17246.545152474844	0
0	28610	17246.595638086617	1
0	28611	17248.457194395454	0
0	28640	17280.579415493771	1
0	28642	17281.062574749243	2
0	28644	17281.520201801405	3
0	28645	17281.96746547319	2
0	28648	17283.880571084507	1
0	28653	17285.618468456939	0
0	28665	17300.864577524371	1
0	28666	17301.485070545433	0
0	28672	17302.027004892362	1
0	28673	17303.171929968541	0
0	28677	17304.182447813209	1
0	28678	17304.500874353779	0
0	28685	17306.438661098421	1
0	28686	17307.545714956915	0
0	28695	17310.073268321855	1
0	28696	17310.78438759722	0
0	28710	17315.473322222711	1
0	28711	17316.506850166107	0
0	28720	17318.93305734663	1
0	28723	17319.899782792339	0
0	28734	17322.885412891118	1
0	28735	17323.432225726592	0
0	28744	17325.972620802906	1
0	28745	17326.771422989155	0
0	28754	17329.184145896588	1
0	28756	17329.442519650114	2
0	28757	17330.120942912671	1
0	28760	17331.804059733312	0
0	28764	17332.156691778985	1
0	28765	17333.776158975485	0
0	28772	17337.386271068202	1
0	28773	17337.478715618188	0
0	28780	17339.803383013493	1
0	28781	17341.22905651168	0
0	28825	17361.639863694902	1
0	28826	17362.253218812202	0
0	28832	17362.508543006234	1
0	28834	17363.119732344528	2
0	28835	17363.953900468056	1
0	28839	17364.20098785697	2
0	28840	17365.247897548866	1
0	28843	17366.920523973633	0
0	28850	17368.868101464361	1
0	28851	17369.782652801354	0
0	28862	17374.59268938975	1
0	28863	17374.879476947611	0
0	28870	17377.256501454521	1
0	28872	17377.357451772493	2
0	28873	17378.240106982453	1
0	28876	17379.789446623339	0
0	28882	17380.848639233658	1
0	28883	17381.509487276612	0
0	28887	17382.134782632167	1
0	28888	17383.310807273066	0
0	28892	17383.805930803302	1
0	28893	17385.088920418075	0
0	28900	17387.019377647803	1
0	28901	17388.478453797004	0
0	28905	17389.486810428653	1
0	28907	17389.825315766437	2
0	28908	17390.329527567229	1
0	28911	17391.966858761101	0
0	28980	17467.468849426114	1
0	28981	17467.666210343851	0
0	28985	17468.63637094136	1
0	28986	17469.015041536628	0
0	29000	17474.187320848532	1
0	29002	17474.202379547559	2
0	29003	17474.850704262451	1
0	29006	17476.622768100024	0
0	29010	17477.299027995837	1
0	29012	17477.421324079135	2
0	29013	17478.506814771377	1
0	29017	17479.609063437999	2
0	29018	17480.201838135392	1
0	29021	17481.534870098576	0
0	29040	17492.186333671955	1
0	29041	17492.309826369362	0
0	29045	17493.495189848529	1
0	29046	17494.129414225707	0
0	29060	17524.864987888951	1
0	29061	17526.271352894849	0
0	29070	17529.492249769194	1
0	29071	17530.733863353407	0
0	29075	17530.746842574899	1
0	29076	17532.066544255478	0
0	29115	17548.724788819032	1
0	29116	17549.902797869817	0
0	29125	17556.435488998042	1
0	29126	17557.679280662857	0
0	29225	17691.195234242622	1
0	29226	17691.296407314375	0
0	29240	17697.474306886389	1
0	29241	17698.606894409699	0
0	29250	17702.701678272927	1
0	29252	17703.170596018135	2
0	29253	17703.896887031996	1
0	29256	17705.389030613431	0
0	29260	17706.186520480059	1
0	29261	17706.841567015515	0
0	29265	17707.02286666982	1
0	29266	17708.833396397398	0
0	29290	17728.31879499861	1
0	29291	17730.145501104105	0
0	29295	17730.61692955515	1
0	29296	17731.648124549832	0
0	29335	17764.156228856861	1
0	29336	17765.184989978979	0
0	29370	17783.357529485315	1
0	29371	17784.025854506881	0
0	29400	17800.70802791911	1
0	29401	17801.862255335137	0
0	29405	17802.443296534417	1
0	29406	17803.841378140546	0
0	29410	17803.843353154585	1
0	29411	17805.596617633015	0
0	29420	17810.041452003863	1
0	29421	17810.287417516195	0
0	29425	17810.906747754821	1
0	29427	17810.972995953801	2
0	29428	17811.8442190037	1
0	29431	17813.375727403619	0
0	29470	17856.556748884465	1
0	29473	17858.346329493341	0
0	29477	17858.924297754685	1
0	29478	17860.198048255485	0
0	29482	17861.501943085468	1
0	29483	17861.919948250693	0
0	29489	17862.822695050613	1
0	29490	17863.327321253796	0
0	29497	17865.762173961778	1
0	29498	17866.706708840732	0
0	29507	17869.1131152202	1
0	29508	17870.087980118286	0
0	29514	17871.536155362617	1
0	29515	17871.747835826952	0
0	29545	17890.056301303344	1
0	29546	17890.181917837252	0
0	29585	17915.513840931851	1
0	29586	17915.781714765626	0
0	29595	17917.98286696076	1
0	29596	17919.340234512734	0
0	29607	17922.103273604523	1
0	29608	17922.483425206216	0
0	29612	17922.603052287891	1
0	29613	17924.094901172155	0
0	29619	17924.381072629716	1
0	29620	17925.322655476341	0
0	29624	17925.344868911323	1
0	29625	17926.95851727155	0
0	29655	17944.237563405637	1
0	29656	17945.166517666822	0
0	29660	17945.352652422583	1
0	29662	17945.399895913525	2
0	29663	17946.900341371169	1
0	29668	17948.150422516932	0
0	29672	17948.524515809134	1
0	29674	17948.759177422748	2
0	29675	17949.710885378254	1
0	29678	17951.646065516492	0
0	29682	17952.535416628585	1
0	29683	17953.19697904857	0
0	29687	17953.222910845921	1
0	29688	17955.11766779842	0
0	29700	17959.589889289162	1
0	29701	17960.352025337774	0
0	29720	17968.879657164735	1
0	29721	17969.308395028278	0
0	29730	17970.971745154028	1
0	29731	17972.576569296514	0
0	29745	17980.342547452643	1
0	29746	17980.397882727125	0
0	29760	17992.602187886301	1
0	29761	17993.013467703015	0
0	29850	18067.786737154128	1
0	29851	18067.885603201537	0
0	29860	18069.592308047736	1
0	29861	18071.049775235537	0
0	29875	18089.755735506171	1
0	29876	18090.238184307766	0
0	29880	18091.235595277357	1
0	29881	18091.595508236316	0
0	29915	18110.139797854181	1
0	29916	18111.091445394249	0
0	29930	18118.667015999549	1
0	29931	18119.269024635179	0
0	29945	18137.96983104374	1
0	29946	18138.398079409671	0
0	29950	18138.901979831446	1
0	29951	18139.871135549282	0
0	29965	18144.799453177076	1
0	29967	18145.495220560374	2
0	29968	18145.727178440493	1
0	29972	18146.432110009701	2
0	29973	18147.257420524646	1
0	29977	18147.268708361493	2
0	29978	18148.783206388046	1
0	29981	18150.779485031654	0
0	29985	18151.281246903318	1
0	29986	18152.143190049817	0
0	29990	18152.354641443093	1
0	29992	18152.433672020207	2
0	29994	18152.614048489037	3
0	29995	18153.621853246232	2
0	29998	18155.538989878697	1
0	30001	18157.531622765464	0
0	30010	18159.768526803634	1
0	30012	18160.110096950552	2
0	30013	18161.069788088056	1
0	30016	18162.456752325932	0
0	30030	18167.390445049508	1
0	30031	18168.848659858598	0
0	30040	18178.695679436237	1
0	30041	18179.007405670383	0
0	30045	18180.82282155542	1
0	30046	18180.828534218506	0
0	30075	18213.618962440005	1
0	30076	18215.046415901428	0
0	30080	18215.160614016845	1
0	30082	18216.01910860822	2
0	30083	18216.338671029044	1
0	30087	18216.506088663917	2
0	30089	18216.718834142441	3
0	30090	18217.934146789146	2
0	30093	18219.912286463251	1
0	30097	18220.282350187487	2
0	30098	18221.661084946489	1
0	30101	18223.595881491771	0
0	30105	18223.814314849431	1
0	30106	18225.545091845339	0
0	30140	18246.297548923108	1
0	30141	18246.325441540251	0
0	30145	18246.680554569193	1
0	30146	18247.871022914941	0
0	30165	18277.837557696759	1
0	30167	18278.927290436623	2
0	30168	18279.135325540285	1
0	30172	18279.374550012431	2
0	30173	18280.382225356306	1
0	30177	18280.67031625355	2
0	30179	18280.930114557981	3
0	30180	18282.301325029562	2
0	30184	18282.447745372952	3
0	30187	18284.165346973444	2
0	30192	18285.829649914856	1
0	30195	18287.744032159689	0
0	30240	18314.776988405127	1
0	30241	18315.706827214872	0
0	30255	18324.319236841565	1
0	30256	18324.684745282876	0
0	30265	18335.168017535444	1
0	30267	18335.399945013031	2
0	30268	18335.526472476198	1
0	30271	18336.738533425963	0
0	30275	18337.58020930199	1
0	30276	18338.622133736944	0
0	30280	18338.658998130673	1
0	30283	18340.458472089542	0
0	30290	18343.842509455382	1
0	30291	18344.095553907266	0
0	30310	18369.408775958405	1
0	30311	18370.571515359521	0
0	30315	18371.707627098669	1
0	30316	18372.180435644254	0
0	30340	18386.050528335839	1
0	30341	18387.28185868995	0
0	30395	18463.606132624852	1
0	30396	18464.609371129696	0
0	30405	18468.555260470182	1
0	30406	18469.705526472426	0
0	30425	18487.258556352	1
0	30426	18487.622066570271	0
0	30445	18496.613935132469	1
0	30446	18496.803819906766	0
0	30455	18508.120851611478	1
0	30456	18508.820273632726	0
0	30480	18517.808982968488	1
0	30481	18518.877982921474	0
0	30495	18524.70918232637	1
0	30496	18525.162337061303	0
0	30510	18530.551969080687	1
0	30511	18530.96851327665	0
0	30530	18539.662705078973	1
0	30531	18541.53812835679	0
0	30535	18541.556540985767	1
0	30536	18542.899595434001	0
0	30615	18615.880554857287	1
0	30616	18616.542069759316	0
0	30635	18622.320095753541	1
0	30636	18623.08787566975	0
0	30660	18650.829495384241	1
0	30661	18651.143084759019	0
0	30680	18675.911588051239	1
0	30681	18676.386322422673	0
0	30685	18677.587252136422	1
0	30686	18677.774620634665	0
0	30690	18677.910122850271	1
0	30691	18679.557118315597	0
0	30695	18681.090703113102	1
0	30696	18681.349807141882	0
0	30760	18750.488979872118	1
0	30761	18751.589588636923	0
0	30772	18753.736875793908	1
0	30774	18754.25348149946	2
0	30775	18754.849263837206	1
0	30781	18756.515421880726	2
0	30782	18756.625023122894	1
0	30785	18757.832276031392	0
0	30789	18759.554267733262	1
0	30790	18759.600388532708	0
0	30797	18761.319473839692	1
0	30798	18762.642884361947	0
0	30804	18764.016821912978	1
0	30805	18764.346608091908	0
0	30830	18785.672912560314	1
0	30831	18786.655258250103	0
0	30835	18788.314504912702	1
0	30837	18788.345261883386	2
0	30838	18788.56991336947	1
0	30841	18790.114801902749	0
0	30845	18790.722284875633	1
0	30846	18792.033319179207	0
0	30850	18792.544965956507	1
0	30852	18792.553601828153	2
0	30854	18793.440213361359	3
0	30855	18793.924390699953	2
0	30858	18795.878132541903	1
0	30861	18797.631600527518	0
0	30870	18800.57410581656	1
0	30871	18800.876607047331	0
0	30910	18835.943588632601	1
0	30911	18836.767537229027	0
0	30960	18897.091201451581	1
0	30961	18898.477058533239	0
0	30965	18899.459014634771	1
0	30966	18900.220795341241	0
0	30970	18901.021687984455	1
0	30972	18901.726201100293	2
0	30973	18902.172167715463	1
0	30976	18903.416377428207	0
0	30980	18903.462779402728	1
0	30981	18905.351249721679	0
0	30990	18908.223581844401	1
0	30991	18909.274880643702	0
0	30995	18909.708941278405	1
0	30996	18911.253916727147	0
0	31000	18911.555102182173	1
0	31001	18912.919339212916	0
0	31030	18926.886507407121	1
0	31031	18928.162867459003	0
0	31125	19035.177028795506	1
0	31126	19035.435015715963	0
0	31135	19037.788112048441	1
0	31138	19038.643552765834	0
0	31145	19041.281502561837	1
0	31146	19041.459183882947	0
0	31170	19064.673544493805	1
0	31171	19064.928727250039	0
0	31200	19080.477681406708	1
0	31201	19080.996223918419	0
0	31245	19119.186211028433	1
0	31246	19120.891765666248	0
0	31260	19124.471833352162	1
0	31261	19126.153583178027	0
0	31270	19129.398705820484	1
0	31271	19129.746503025396	0
0	31297	19148.797596128196	1
0	31298	19149.232795390765	0
0	31355	19175.231459253636	1
0	31358	19176.730092427742	0
0	31365	19178.562688259134	1
0	31367	19178.85001916607	2
0	31368	19179.794483161207	1
0	31373	19181.496025501799	0
0	31380	19183.366237092151	1
0	31382	19183.496669698983	2
0	31383	19184.46448981953	1
0	31388	19185.735845971714	0
0	31392	19185.921896850764	1
0	31394	19186.630096653145	2
0	31395	19187.287634125213	1
0	31398	19188.813004889573	0
0	31415	19200.966216968057	1
0	31416	19201.46949315667	0
0	31420	19202.402750041034	1
0	31421	19202.861022841743	0
0	31430	19204.923805010568	1
0	31432	19205.545697768735	2
0	31434	19205.6453734597	3
0	31435	19206.224403025734	2
0	31438	19207.751118862035	1
0	31442	19208.16865306884	2
0	31443	19209.339478930982	1
0	31446	19210.637863865646	0
0	31455	19213.74048351282	1
0	31456	19214.225413896426	0
0	31460	19214.321189570337	1
0	31461	19215.520944635294	0
0	31465	19215.987022461141	1
0	31467	19216.788711002749	2
0	31468	19217.489231538683	1
0	31472	19218.073801485354	2
0	31473	19218.788963094264	1
0	31477	19219.346366972702	2
0	31479	19220.399753224529	3
0	31480	19220.770732426926	2
0	31483	19222.393653820924	1
0	31487	19222.833790554993	2
0	31489	19224.01416807356	3
0	31490	19224.328308863662	2
0	31493	19225.617401860192	1
0	31497	19225.825266346877	2
0	31499	19227.130809103295	3
0	31500	19227.421247262045	2
0	31503	19229.169918130248	1
0	31507	19230.843591756804	2
0	31508	19231.158101378291	1
0	31512	19232.255078597302	2
0	31513	19232.407475533805	1
0	31516	19233.711030949562	0
0	31520	19233.851484801294	1
0	31521	19235.341621522329	0
0	31525	19236.470571989623	1
0	31526	19237.008857943214	0
0	31530	19237.358527802451	1
0	31531	19238.399072508424	0
0	31575	19286.815094084984	1
0	31576	19288.304299031828	0
0	31600	19295.188984540325	1
0	31601	19296.846091479496	0
0	31605	19297.256482754505	1
0	31606	19298.483022616305	0
0	31610	19298.963878216964	1
0	31611	19300.341917174742	0
0	31620	19302.697053734775	1
0	31621	19303.230389019348	0
0	31630	19306.970227878224	1
0	31631	19307.95467560885	0
0	31640	19311.719530019895	1
0	31641	19312.677820971039	0
0	31645	19313.123572240895	1
0	31647	19313.520142838531	2
0	31648	19314.578666125041	1
0	31652	19314.844169874453	2
0	31653	19316.292867344048	1
0	31656	19317.550163270708	0
0	31660	19317.804260775105	1
0	31661	19319.5102644164	0
0	31675	19325.3412585441	1
0	31676	19325.879855798723	0
0	31685	19328.999376753363	1
0	31686	19330.580614107139	0
0	31710	19359.128280156298	1
0	31711	19360.728880035811	0
0	31715	19361.068023386166	1
0	31716	19362.387257752315	0
0	31720	19363.137568214276	1
0	31721	19364.297447901339	0
0	31765	19413.736244811532	1
0	31766	19413.786320493694	0
0	31785	19426.874716433462	1
0	31786	19427.831231023978	0
0	31790	19428.021350465106	1
0	31791	19429.703731701757	0
0	31795	19430.225965422807	1
0	31796	19431.486512987363	0
0	31800	19431.586003166933	1
0	31801	19432.936507119472	0
0	31805	19433.067033778563	1
0	31806	19434.574535799819	0
0	31810	19434.625417958287	1
0	31811	19435.841149548675	0
0	31875	19508.703569916788	1
0	31876	19509.884764992944	0
0	31895	19518.458701417229	1
0	31897	19518.792482103845	2
0	31898	19519.585658865444	1
0	31901	19520.883083221711	0
0	31935	19548.596231470514	1
0	31936	19549.794694103001	0
0	31940	19550.489525276287	1
0	31941	19551.021934362574	0
0	31972	19562.72919099817	1
0	31973	19563.732658776907	0
0	31980	19567.415823551202	1
0	31981	19567.521746807998	0
0	32005	19595.023029840754	1
0	32006	19595.267280151523	0
0	32015	19597.458276746539	1
0	32016	19597.984932869314	0
0	32025	19599.721850493778	1
0	32026	19600.888722326806	0
0	32065	19627.904920396079	1
0	32066	19628.52054844836	0
0	32085	19643.974629735808	1
0	32086	19645.329061446292	0
0	32090	19645.678719263909	1
0	32091	19647.042065178556	0
0	32105	19651.020821258998	1
0	32107	19651.935716386694	2
0	32108	19652.243554902292	1
0	32112	19652.300488243741	2
0	32115	19654.054563809401	1
0	32119	19654.166611149183	2
0	32121	19655.101219164271	3
0	32122	19655.718273807346	2
0	32126	19656.307965752254	3
0	32127	19657.279243512481	2
0	32131	19658.715928398781	3
0	32132	19658.735015406489	2
0	32135	19660.533846996195	1
0	32138	19662.282352263323	0
0	32142	19662.661520475708	1
0	32143	19663.943983577407	0
0	32150	19666.312773256666	1
0	32152	19666.741659868186	2
0	32155	19667.42513128317	1
0	32158	19669.172601397364	0
0	32162	19670.261484124376	1
0	32165	19671.041501746355	0
0	32205	19698.568417973461	1
0	32206	19700.158455383418	0
0	32210	19701.946268280129	1
0	32211	19702.117097940309	0
0	32220	19703.863376962379	1
0	32223	19705.422929747043	0
0	32227	19706.547818236307	1
0	32228	19706.78739730568	0
0	32232	19707.48169981303	1
0	32235	19708.011248433975	0
0	32275	19745.630484012183	1
0	32276	19746.905811865841	0
0	32305	19760.047247406741	1
0	32307	19760.419846462725	2
0	32308	19760.831235061674	1
0	32312	19760.906259837546	2
0	32313	19762.327342536947	1
0	32317	19762.885343196073	2
0	32319	19762.92790440682	3
0	32321	19763.025377837184	4
0	32322	19763.717696518911	3
0	32325	19764.945371880656	2
0	32329	19765.158493265645	3
0	32331	19766.377097988677	4
0	32332	19766.583297851024	3
0	32335	19767.828248934535	2
0	32338	19769.262040272815	1
0	32341	19770.696320846578	0
0	32355	19774.913519601074	1
0	32357	19775.440927133813	2
0	32358	19776.474572954244	1
0	32361	19778.359129894814	0
0	32380	19794.769158487961	1
0	32383	19795.615822257883	0
0	32387	19796.102292345566	1
0	32388	19796.999767008088	0
0	32395	19798.485725674476	1
0	32396	19799.729364117272	0
0	32400	19800.375928835947	1
0	32402	19800.681802705152	2
0	32403	19801.262789149619	1
0	32406	19802.699978374913	0
0	32410	19803.025918707975	1
0	32411	19804.120377157852	0
0	32415	19804.512406133571	1
0	32416	19805.528734810688	0
0	32450	19836.548792219499	1
0	32451	19837.484244291854	0
0	32475	19859.424910270238	1
0	32476	19859.898724762128	0
0	32480	19860.830432766858	1
0	32481	19861.628306743094	0
0	32485	19862.570304661902	1
0	32486	19863.097027706505	0
0	32515	19885.644980318128	1
0	32516	19886.211150886051	0
0	32520	19886.643395669982	1
0	32522	19886.672973504063	2
0	32523	19888.094338225133	1
0	32526	19889.556307402558	0
0	32530	19890.196054109897	1
0	32532	19890.488282487018	2
0	32533	19891.263804613545	1
0	32537	19892.724439718811	2
0	32538	19893.19999951788	1
0	32542	19894.054509975341	2
0	32543	19894.646031539261	1
0	32547	19895.39695737044	2
0	32548	19896.345809949122	1
0	32552	19897.395540614793	2
0	32553	19897.751792895913	1
0	32557	19897.906843430419	2
0	32560	19899.476216168076	1
0	32564	19900.411174195974	2
0	32565	19901.327847886019	1
0	32568	19902.857496344232	0
0	32577	19904.882286503432	1
0	32578	19906.007839724542	0
0	32582	19906.338376266689	1
0	32584	19906.769045071294	2
0	32587	19907.732220453703	1
0	32590	19909.492819909499	0
0	32594	19910.540642307421	1
0	32595	19911.391799732604	0
0	32599	19911.546884875249	1
0	32600	19913.218680528113	0
0	32607	19915.651386795609	1
0	32610	19916.628135391073	0
0	32614	19917.094946477837	1
0	32615	19918.218335061455	0
0	32630	19922.899647507601	1
0	32631	19924.431928463215	0
0	32662	19936.368420235571	1
0	32663	19936.547871797914	0
0	32670	19938.460304837309	1
0	32671	19939.431800980503	0
0	32685	19957.462769827883	1
0	32686	19957.747527749457	0
0	32720	19982.406490180527	1
0	32721	19982.540393288968	0
0	32725	19983.162782523857	1
0	32726	19984.240969958505	0
0	32730	19984.785584029096	1
0	32731	19986.08065222369	0
0	32735	19986.220246535124	1
0	32736	19987.830886979005	0
0	32750	19992.533831114689	1
0	32751	19993.625525884037	0
0	32755	19994.243834680987	1
0	32756	19994.965349383731	0
0	32780	20023.06245244165	1
0	32781	20023.39454875016	0
0	32790	20028.744631094309	1
0	32791	20029.152003785912	0
0	32795	20030.480037686609	1
0	32796	20030.575855895076	0
0	32815	20039.646207734252	1
0	32817	20040.010349108651	2
0	32818	20040.50544990573	1
0	32822	20041.49910912871	2
0	32823	20042.092154523469	1
0	32826	20043.339142845869	0
0	32830	20044.243358463689	1
0	32832	20044.920238100991	2
0	32833	20045.212395465672	1
0	32837	20045.404985482797	2
0	32838	20046.479302864633	1
0	32842	20046.809339054264	2
0	32844	20047.900835504104	3
0	32846	20048.007997510283	4
0	32847	20048.413339494839	3
0	32851	20049.711934760607	4
0	32852	20050.253136171326	3
0	32856	20051.123072662912	4
0	32858	20051.124967839953	5
0	32859	20051.993600236364	4
0	32862	20053.71854524903	3
0	32865	20055.67468464423	2
0	32869	20056.736215358692	3
0	32870	20057.530901163742	2
0	32873	20058.932594859153	1
0	32877	20059.171367565627	2
0	32878	20060.261320662051	1
0	32881	20061.868136480189	0
0	32890	20064.870979855085	1
0	32891	20066.212195624686	0
0	32920	20090.662022634972	1
0	32921	20092.110802653735	0
0	32925	20093.114680416248	1
0	32926	20093.721498198179	0
0	32940	20097.886337097676	1
0	32941	20099.095977197577	0
0	32950	20138.481428385098	1
0	32951	20139.299433277792	0
0	32955	20139.775245381549	1
0	32956	20141.277813614591	0
0	32985	20189.235028832279	1
0	32986	20190.206304518609	0
0	32995	20194.153679195226	1
[...]
7	48475	29570.097267306163	1
7	48476	29570.727542012905	0
7	48495	29576.940237334661	1
7	48497	29577.724343012885	2
7	48498	29578.619235004017	1
7	48501	29580.091916357258	0
7	48505	29580.262235337641	1
7	48506	29581.328258837292	0
7	48510	29582.437005124966	1
7	48511	29582.860770778636	0
7	48540	29604.760409608207	1
7	48541	29605.602205340744	0
7	48670	29714.76157748897	1
7	48671	29715.753477480415	0
7	48955	29958.913748798676	1
7	48956	29960.090323389272	0
7	48967	29962.37710505204	1
7	48991	29970.946963151308	0
8	17347	10290.327978520906	1
8	17356	10292.54513302743	0
8	18122	10796.40529381918	1
8	18124	10797.840788847151	0
8	18224	10834.353655021649	1
8	18228	10835.890705415014	0
8	18285	10853.538316943881	1
8	18288	10854.851533302677	2
8	18290	10855.674944758418	1
8	18292	10856.032679622872	0
8	18300	10858.584967211646	1
8	18305	10860.941330805887	0
8	18390	10906.71625220774	1
8	18391	10910.107618853748	0
8	18520	10988.545069872777	1
8	18526	10990.847939888784	0
8	18815	11145.070703051029	1
8	18816	11146.190791092942	0
8	18840	11154.565672602977	1
8	18841	11154.604788199721	0
8	18850	11157.959871499894	1
8	18851	11158.32446423306	0
8	19085	11283.354277576054	1
8	19089	11285.303285860124	0
8	19146	11302.576614392641	1
8	19148	11303.705181994853	0
8	19151	11304.051390822696	1
8	19153	11304.78929691841	0
8	19269	11345.455682964275	1
8	19276	11349.29987888326	0
8	19725	11677.573229221011	1
8	19726	11677.940884110268	0
8	19824	11711.084257231061	1
8	19828	11712.005094726104	0
8	19831	11712.503191905808	1
8	19833	11713.163407157985	0
8	19887	11731.45268274561	1
8	19889	11731.883099223646	0
8	20085	11851.785009090803	1
8	20086	11855.154822179354	0
8	20110	11862.339583140104	1
8	20111	11862.873477919021	0
8	20228	11929.539750444825	1
8	20230	11930.140365782655	0
8	20238	11932.963381757896	1
8	20240	11934.243676364822	0
8	20251	11937.982983314555	1
8	20256	11939.654765673105	2
8	20260	11940.081862759007	1
8	20265	11941.125853669394	2
8	20269	11942.714417652602	1
8	20272	11942.761786226306	2
8	20274	11943.659033775561	1
8	20279	11944.832115988827	0
8	20630	12124.128522257239	1
8	20631	12125.124048130746	0
8	20722	12180.291294636418	1
8	20724	12181.72298176003	0
8	20730	12183.891811156486	1
8	20731	12184.420625018806	0
8	20740	12187.692556559213	1
8	20741	12188.200763904843	0
8	20770	12202.300849164492	1
8	20774	12203.739536490631	0
8	20784	12206.460238037424	1
8	20786	12206.629256582933	0
8	20807	12214.561502885798	1
8	20810	12216.396010488437	2
8	20811	12216.781784921768	1
8	20814	12216.805855508899	0
8	20930	12282.137894671807	1
8	20931	12283.138863094251	0
8	21290	12546.250712959747	1
8	21291	12546.580418617515	0
8	21797	12964.413219642123	1
8	21799	12965.139926772177	0
8	21990	13095.210500686614	1
8	21991	13096.971320571316	0
8	22082	13127.296637205081	1
8	22086	13128.837301112053	0
8	22374	13349.015522319434	1
8	22381	13351.425980329029	0
8	22384	13351.500774016959	1
8	22386	13351.764113400088	0
8	22807	13575.247271738365	1
8	22809	13575.742617210171	0
8	22817	13578.794939713344	1
8	22821	13581.327960169424	0
8	23015	13661.499907387977	1
8	23016	13662.420661761284	0
8	23020	13663.695798925914	1
8	23021	13664.930150594019	0
8	23030	13667.616524873689	1
8	23034	13670.02048350227	0
8	23080	13687.274503766536	1
8	23081	13688.090265535543	0
8	23185	13749.925163478004	1
8	23186	13752.389696040322	0
8	23197	13755.544422456567	1
8	23201	13756.735054761752	0
8	23585	14002.559978855566	1
8	23591	14008.207146211445	0
8	23610	14014.883612732174	1
8	23611	14017.28633267859	0
8	23642	14041.961856665332	1
8	23644	14042.313315879592	0
8	23649	14043.456086437833	1
8	23651	14044.325269174401	0
8	23670	14047.770936420988	1
8	23672	14048.778241864409	0
8	24050	14386.840534982998	1
8	24051	14388.382592424905	0
8	24217	14502.572153184033	1
8	24221	14504.405511057939	0
8	24241	14508.870603913258	1
8	24243	14509.924534196504	0
8	24271	14518.199405732939	1
8	24273	14518.252035667372	0
8	24276	14520.084897624331	1
8	24278	14520.447374783773	0
8	24281	14521.751581738333	1
8	24283	14522.402148802637	0
8	24286	14523.575215972218	1
8	24288	14523.767488030782	0
8	24291	14524.861407657716	1
8	24298	14527.391556458406	0
8	24312	14533.394010523711	1
8	24316	14540.554911246814	0
8	24369	14556.506623505906	1
8	24371	14556.928275981625	0
8	24470	14593.596275793311	1
8	24471	14594.368292931866	0
8	24475	14595.83176449484	1
8	24476	14596.208884831141	0
8	24531	14612.65166558027	1
8	24533	14613.068473849723	0
8	24710	14757.912419953467	1
8	24711	14758.100166149865	0
8	24757	14775.031411169838	1
8	24761	14776.939191364903	0
8	24905	14886.855492805272	1
8	24914	14890.724964846144	0
8	24919	14891.566393868825	1
8	24921	14892.237986186554	0
8	24932	14895.74545643126	1
8	24935	14897.11195961052	2
8	24939	14897.995762490975	1
8	24944	14899.049679173755	0
8	25575	15391.56361819309	1
8	25576	15393.217212777868	0
8	25754	15485.844620971764	1
8	25759	15488.352044029348	0
8	25767	15490.435412042784	1
8	25769	15492.195574676483	0
8	26037	15636.804885559034	1
8	26041	15638.867428124807	0
8	26186	15699.239372727585	1
8	26188	15699.83566090566	0
8	26191	15701.196393881117	1
8	26193	15702.392400310283	0
8	26196	15703.083759509523	1
8	26199	15704.651254018892	2
8	26201	15704.861477915519	1
8	26203	15706.062621458217	0
8	26306	15736.715676489409	1
8	26308	15737.317636246762	0
8	26405	15799.151351960067	1
8	26406	15799.339108716251	0
8	26757	16037.028752040636	1
8	26759	16037.230845214311	0
8	26839	16067.493485312242	1
8	26841	16069.276283600695	0
8	26849	16070.835992116559	1
8	26851	16070.869749818306	0
8	26856	16072.755331353921	1
8	26858	16073.070953693958	0
8	26874	16078.797817596685	1
8	26876	16078.947824144756	0
8	26888	16082.243102777828	1
8	26890	16082.952029545161	0
8	27264	16288.978221687853	1
8	27266	16289.043886386159	0
8	27289	16296.882146602675	1
8	27291	16297.443516538917	0
8	27865	16787.815140193128	1
8	27866	16788.010874106476	0
8	27879	16791.490799275341	1
8	27881	16791.781822720774	0
8	27884	16792.817646278741	1
8	27888	16792.83974307507	0
8	27905	16797.497484384218	1
8	27913	16800.374196311572	2
8	27915	16800.764270794212	1
8	27917	16800.894156014197	0
8	28015	16858.230671164246	1
8	28016	16858.387333223346	0
8	28352	17065.59837128985	1
8	28354	17066.02293345822	0
8	28397	17085.044409767998	1
8	28401	17088.03708517281	0
8	28570	17222.594706318918	1
8	28571	17224.45707374362	0
8	28844	17366.920523973633	1
8	28849	17368.868101464361	0
8	28855	17371.063770981212	1
8	28856	17372.900910029648	0
8	28897	17386.99926956845	1
8	28899	17387.019377647803	0
8	29007	17476.622768100024	1
8	29009	17477.299027995837	0
8	29245	17700.116125812238	1
8	29249	17702.701678272927	0
8	29254	17703.896887031996	1
8	29259	17706.186520480059	0
8	29415	17807.144790466599	1
8	29419	17810.041452003863	0
8	29422	17810.287417516195	1
8	29424	17810.906747754821	0
8	29604	17921.167855206216	1
8	29606	17922.103273604523	0
8	29669	17948.150422516932	1
8	29671	17948.524515809134	0
8	29955	18141.132672766817	1
8	29956	18142.276365604909	0
8	29960	18143.761928131157	1
8	29961	18144.122395538602	0
8	29969	18145.727178440493	1
8	29971	18146.432110009701	0
8	30525	18538.917756620856	1
8	30526	18539.559533326482	0
8	30620	18617.85381082455	1
8	30621	18618.288609175558	0
8	30865	18799.379276705213	1
8	30866	18799.505432633806	0
8	30982	18905.351249721679	1
8	30986	18907.684443229764	0
8	31422	19202.861022841743	1
8	31425	19204.241660030558	2
8	31426	19204.529061844538	1
8	31429	19204.923805010568	0
8	31494	19225.617401860192	1
8	31498	19227.130809103295	0
8	31680	19327.452690535577	1
8	31681	19328.844345873817	0
8	32097	19648.72331778123	1
8	32104	19651.020821258998	0
8	32147	19665.666223219997	1
8	32149	19666.312773256666	0
8	32217	19703.526063574305	1
8	32219	19703.863376962379	0
8	32392	19798.408545804992	1
8	32394	19798.485725674476	0
8	32407	19802.699978374913	1
8	32409	19803.025918707975	0
8	32604	19914.799121568845	1
8	32606	19915.651386795609	0
8	32827	20043.339142845869	1
8	32829	20044.243358463689	0
8	33274	20368.69340789378	1
8	33276	20368.71412468513	0
8	33284	20371.281174210499	1
8	33286	20372.010238980055	0
8	33318	20381.695579412806	1
8	33325	20383.797536455645	0
8	33330	20384.956798387918	1
8	33337	20386.338157769333	2
8	33347	20389.872699238773	3
8	33350	20391.204316185269	4
8	33355	20393.1571000526	3
8	33364	20396.36356951189	2
8	33370	20398.588748045492	3
8	33374	20399.782043333744	2
8	33376	20399.968650904414	1
8	33381	20400.379297508898	2
8	33391	20404.725136593289	1
8	33399	20407.526167591239	0
8	33402	20407.949696997221	1
8	33404	20408.190779071365	0
8	33407	20409.795369981829	1
8	33409	20410.001176415003	0
8	33951	20764.838487234386	1
8	33953	20765.920999581802	0
8	33956	20766.060977690155	1
8	33959	20767.871011787141	2
8	33961	20768.315954770692	1
8	33964	20769.57220527851	2
8	33969	20771.564197230747	1
8	33971	20771.851442945383	0
8	34012	20785.216080814088	1
8	34015	20786.881356792385	2
8	34016	20786.960024855353	1
8	34020	20788.380520950697	2
8	34024	20791.505967504065	1
8	34029	20792.704747848858	0
8	34032	20794.200037109755	1
8	34034	20795.451177755139	0
8	34060	20806.276088327534	1
8	34061	20808.606692592428	0
8	34124	20838.34316893223	1
8	34126	20838.48118935995	0
8	34187	20861.683345525867	1
8	34191	20866.573372683027	0
8	34225	20881.927041202707	1
8	34226	20882.263234091765	0
8	34260	20899.736420858544	1
8	34261	20899.813450188646	0
8	34670	21304.286948989223	1
8	34671	21305.40358719598	0
8	34695	21312.735724178286	1
8	34699	21313.406526113387	0
8	35017	21520.049938036338	1
8	35019	21520.636344114815	0
8	35169	21616.242896941211	1
8	35171	21617.523362477429	0
8	35260	21693.584441261599	1
8	35261	21698.537754394268	0
8	35265	21700.214017711175	1
8	35266	21701.389609349853	0
8	35535	21961.596425098436	1
8	35536	21962.522529423602	0
8	35656	22030.436737042061	1
8	35658	22031.079313832476	0
8	35756	22063.538043799018	1
8	35760	22063.821652477001	0
8	35870	22108.376225820243	1
8	35871	22109.165041229082	0
8	35995	22234.343812639351	1
8	35996	22234.803430409892	0
8	36257	22397.436550141556	1
8	36259	22397.47959288846	0
8	36262	22398.874955797626	1
8	36264	22399.313436612099	0
8	36292	22409.048162294883	1
8	36296	22410.845216462452	0
8	36312	22415.320220974337	1
8	36314	22415.997469050185	0
8	36332	22421.365291176427	1
8	36334	22422.079254403688	0
8	36342	22424.874602537293	1
8	36344	22426.358925289122	0
8	36390	22448.226863570151	1
8	36391	22449.389176467561	0
8	36555	22546.90435415023	1
8	36556	22548.386763457593	0
8	36575	22554.603285533066	1
8	36576	22554.847115994867	0
8	36645	22583.145051568579	1
8	36646	22583.83695750123	0
8	36650	22585.288916251791	1
8	36651	22587.329765210825	0
8	36696	22603.259954744786	1
8	36698	22603.785839356923	0
8	36701	22604.708317641564	1
8	36703	22605.846622566735	0
8	36746	22619.036232785159	1
8	36751	22621.925028770232	0
8	36759	22624.272137199551	1
8	36761	22625.140317115856	0
8	37072	22789.268459052479	1
8	37081	22794.034502603628	0
8	37312	22926.265403187253	1
8	37316	22929.229830198914	0
8	37455	23039.517251878547	1
8	37459	23042.884609039835	0
8	37470	23046.292788865874	1
8	37474	23047.030801905742	0
8	37652	23140.23585411861	1
8	37656	23142.241166648372	0
8	37970	23344.624697154977	1
8	37971	23346.109120269325	0
8	38120	23427.13320332785	1
8	38121	23427.14722824168	0
8	38390	23576.638394660185	1
8	38394	23577.540535357758	0
8	38541	23652.723454099263	1
8	38549	23657.229792678159	0
8	38755	23821.488391329494	1
8	38756	23822.436875883751	0
8	38802	23836.39059050724	1
8	38804	23837.913646203436	0
8	38857	23853.523166401201	1
8	38859	23853.670180251311	0
8	38885	23872.355635403817	1
8	38886	23872.590766891814	0
8	39137	24001.168369476777	1
8	39139	24001.653688496313	0
8	39242	24068.672858999664	1
8	39247	24070.589775961073	2
8	39249	24071.308481398795	1
8	39252	24072.448320983903	2
8	39256	24074.085959192636	1
8	39259	24074.442065602594	0
8	39692	24332.356388621246	1
8	39694	24333.218440008058	0
8	40015	24565.034291525199	1
8	40016	24565.412805355023	0
8	40031	24568.747846039626	1
8	40035	24569.686340395384	0
8	40078	24583.077750299738	1
8	40082	24584.164051175353	0
8	40272	24760.614573650493	1
8	40274	24762.123136054858	0
8	40277	24762.558985182701	1
8	40281	24763.119308363173	0
8	40284	24764.102356938517	1
8	40286	24765.618520510139	0
8	40381	24804.507912294367	1
8	40383	24804.703349077487	0
8	40386	24806.050847479129	1
8	40388	24806.219262970144	0
8	40419	24818.144562902661	1
8	40422	24819.753767189929	2
8	40429	24822.326119536692	1
8	40431	24822.448869364346	0
8	40457	24831.169264010886	1
8	40459	24832.456599104277	0
8	40660	25028.286325731811	1
8	40661	25030.23327862501	0
8	40791	25100.23398379829	1
8	40795	25100.685504658275	0
8	40800	25101.546248053352	1
8	40802	25102.03993761877	0
8	40869	25125.242649337801	1
8	40872	25126.962704860943	2
8	40874	25128.002283521342	1
8	40879	25128.308975817165	0
8	40898	25132.324004840258	1
8	40903	25134.003109636092	0
8	41047	25202.631423427825	1
8	41056	25205.214415880947	0
8	41234	25339.981145379165	1
8	41236	25340.792219105737	0
8	41269	25351.208129459651	1
8	41271	25351.937512527957	0
8	41497	25502.741780250701	1
8	41504	25504.66538050574	0
8	41834	25743.583272677405	1
8	41837	25745.370029832168	2
8	41841	25746.586320140913	1
8	41849	25748.812411783194	2
8	41854	25750.280047977928	1
8	41856	25751.698925058503	0
8	41896	25763.213899834945	1
8	41898	25763.24278830284	0
8	42180	25951.743176034244	1
8	42181	25952.647968115673	0
8	42484	26130.460039705375	1
8	42486	26132.053509049389	0
8	42900	26379.822457158738	1
8	42906	26381.990209826386	0
8	43082	26462.804828869886	1
8	43096	26467.38220613416	0
8	43334	26573.80226217047	1
8	43336	26574.389277223053	0
8	43339	26575.333408411636	1
8	43341	26576.927425950927	0
8	43485	26661.992431972996	1
8	43489	26663.66545581262	0
8	43524	26687.713527451224	1
8	43526	26688.62702678225	0
8	43529	26689.398976811721	1
8	43532	26691.325741548604	2
8	43535	26693.048590216553	3
8	43536	26693.114479776982	2
8	43539	26694.013706943174	1
8	43544	26695.815238001495	0
8	43605	26740.257290940822	1
8	43606	26742.033592501027	0
8	43952	26905.263380057828	1
8	43954	26905.427492747859	0
8	44060	26992.648936506454	1
8	44064	26993.725341801549	0
8	44183	27035.445013453854	1
8	44186	27037.33279714421	2
8	44188	27037.99009091127	1
8	44190	27038.510325037713	0
8	44199	27041.797641222781	1
8	44209	27045.393109149501	0
8	44389	27147.237660827512	1
8	44394	27148.495231546794	0
8	44397	27149.804026611174	1
8	44399	27150.156370648037	0
8	44412	27154.291259232934	1
8	44419	27156.865991808749	0
8	44465	27174.168423667526	1
8	44469	27176.130365692947	0
8	44472	27177.005519106467	1
8	44474	27177.138497597572	0
8	44477	27178.476330967475	1
8	44479	27178.953532572682	0
8	44684	27295.244662060738	1
8	44686	27295.567166304881	0
8	44815	27357.796811611899	1
8	44821	27359.431381284415	0
8	44944	27438.258949844012	1
8	44946	27439.420844687292	0
8	44978	27448.121016409467	1
8	44980	27449.587844446362	0
8	45002	27457.50929816443	1
8	45004	27458.437371272789	0
8	45081	27481.47776633522	1
8	45083	27482.135328902574	0
8	45086	27482.725203044736	1
8	45088	27483.068378225171	0
8	45130	27499.193755567503	1
8	45131	27499.981798549845	0
8	45137	27501.476294264487	1
8	45139	27503.276111080318	0
8	45230	27540.694348835379	1
8	45231	27543.338390687196	0
8	45396	27623.228908849883	1
8	45400	27623.989802503427	0
8	45405	27624.780097327198	1
8	45407	27624.822150466048	0
8	45410	27626.694230380471	1
8	45412	27627.748995327438	0
8	45428	27633.114269035499	1
8	45430	27633.444091441819	0
8	45705	27742.276206474352	1
8	45706	27742.390211450167	0
8	45780	27780.750862237452	1
8	45781	27782.212886795981	0
8	45792	27784.81353655143	1
8	45794	27785.750209496039	0
8	45797	27786.095296764023	1
8	45800	27787.331764252692	2
8	45801	27787.611352361447	1
8	45806	27787.933334685773	0
8	45809	27789.479927225678	1
8	45811	27789.61957331113	0
8	45814	27790.685619811236	1
8	45819	27792.67848445744	2
8	45821	27793.883500687423	1
8	45824	27794.303031110845	2
8	45826	27795.027860609434	1
8	45828	27795.545225213411	0
8	45848	27800.562006017834	1
8	45851	27802.158892825328	2
8	45853	27802.951764100481	1
8	45859	27805.185060938903	2
8	45869	27808.545017403261	3
8	45873	27809.949523756802	2
8	45878	27810.634184213682	1
8	45882	27810.94136585299	0
8	45944	27833.550491986508	1
8	45951	27836.836334920419	0
8	46005	27898.159418432558	1
8	46006	27898.426704519879	0
8	46044	27909.495893897568	1
8	46049	27912.192216383662	0
8	46377	28128.102558652145	1
8	46379	28128.802928027645	0
8	46547	28210.866379703475	1
8	46551	28212.200829596657	0
8	46556	28212.542985638683	1
8	46558	28213.24577688479	0
8	46561	28214.201447101203	1
8	46563	28214.610907040868	0
8	46960	28521.557667317473	1
8	46961	28522.010524227529	0
8	47122	28641.458797153642	1
8	47125	28642.698743187448	2
8	47126	28643.044471102311	1
8	47129	28643.86601294741	0
8	47135	28646.386304446785	1
8	47139	28646.567048418838	0
8	47142	28648.321996056068	1
8	47144	28648.364366963353	0
8	47375	28824.598938753933	1
8	47379	28825.590960689593	0
8	47409	28835.208820872899	1
8	47421	28838.56864430607	0
8	47685	29028.543893103336	1
8	47686	29030.049688803717	0
8	48000	29224.633683829815	1
8	48001	29224.748688591873	0
8	48195	29371.620959575612	1
8	48199	29372.516855376961	0
8	48202	29373.303578510461	1
8	48204	29374.286943233975	0
8	48799	29844.001296722477	1
8	48810	29848.688017156122	2
8	48811	29849.921786068104	1
8	48814	29850.755301833523	0
8	48817	29851.410404042065	1
8	48819	29851.624071606385	0
9	17877	10621.616302778535	1
9	17879	10622.663152886289	0
9	17910	10650.664064746299	1
9	17911	10652.226877053843	0
9	17930	10658.351214760559	1
9	17931	10659.598200462451	0
9	18012	10698.305003746525	1
9	18014	10698.894693371118	0
9	18022	10701.732147183009	1
9	18024	10702.980686373011	0
9	19212	11326.30993691953	1
9	19214	11326.598135832725	0
9	19220	11329.470008368885	1
9	19221	11330.138488523501	0
9	19225	11331.777329358484	1
9	19226	11333.017714076141	0
9	23955	14299.085847597814	1
9	23956	14302.682002935542	0
9	24430	14577.158468434747	1
9	24431	14577.995739479845	0
9	25725	15470.9181092378	1
9	25726	15476.525052713986	0
9	28235	17002.985419775314	1
9	28236	17005.367833386544	0
9	28240	17007.202414877523	1
9	28241	17007.605858310669	0
9	28245	17009.151622906498	1
9	28246	17009.280265048269	0
9	28250	17010.516413563985	1
9	28251	17012.787726402109	0
9	28280	17031.363269252773	1
9	28289	17037.346536915747	0
9	28782	17341.22905651168	1
9	28784	17341.850841960811	0
9	31310	19154.034830219577	1
9	31314	19155.559552507879	0
9	31330	19162.0636463875	1
9	31331	19162.235469076479	0
9	32245	19712.845449911815	1
9	32246	19713.195915300872	0
9	33030	20205.049597908936	1
9	33034	20206.680804718865	0
9	33160	20332.402422561103	1
9	33161	20332.601445459691	0
9	33167	20334.454014320229	1
9	33169	20335.036305418619	0
9	33227	20353.224747273257	1
9	33229	20353.410123850055	0
9	33247	20358.73434235633	1
9	33251	20360.480789713312	0
9	33255	20362.436184942287	1
9	33260	20364.926527805889	2
9	33264	20366.998303319079	1
9	33271	20368.504184598932	0
9	33444	20423.676473326276	1
9	33446	20424.896162529262	0
9	33560	20502.623699812767	1
9	33561	20502.805076800752	0
9	33565	20504.411998231057	1
9	33569	20505.528481105764	0
9	35067	21537.491029684369	1
9	35069	21537.566875779733	0
9	35480	21938.722299550028	1
9	35481	21939.444979990864	0
9	39369	24110.195140294258	1
9	39371	24111.423476543956	0
9	39665	24321.546966744029	1
9	39669	24324.169437323488	0
9	42530	26146.205537682922	1
9	42531	26146.298898835263	0
9	42539	26148.295697669095	1
9	42541	26148.849497244882	0
9	43145	26482.769612761622	1
9	43149	26488.657063424473	0
9	43160	26492.226235070169	1
9	43161	26493.492488820657	0
9	43165	26495.313938265659	1
9	43169	26499.513183736885	0
9	46075	27927.238756700678	1
9	46076	27929.66698027002	0
9	46285	28092.261318732225	1
9	46286	28093.561583324857	0
9	47210	28707.031417484786	1
9	47211	28707.697602795425	0
9	47760	29092.217759415632	1
9	47764	29093.222556689423	0
9	47967	29205.326948856852	1
9	47969	29206.074617794581	0

