version 2
run Third_exit_8-5-20191023-00:20:24-5305
attr configname Third_exit_8
attr datetime 20191023-00:20:24
attr experiment Third_exit_8
attr inifile omnetpp.ini
attr iterationvars ""
attr iterationvarsf ""
attr measurement ""
attr network ResponseTimeNetwork
attr processid 5305
attr repetition 5
attr replication #5
attr resultdir results
attr runnumber 5
attr seedset 5
param **.Source.interArrivalTime exponential(6s)
param **.jobPriority bernoulli(0.8)
param **.PS.serviceTimeU1 "uniform(1.2s, 2.0s)"
param **.PS.serviceTimeU2 "uniform(2.4s, 2.8s)"
param **.SS1.serviceTime exponential(1.4s)
param **.SS2.serviceTime exponential(2s)
param **.PS.exitProbability bernoulli(0.8)

vector 0 ResponseTimeNetwork.SS1 queueLength:vector ETV
attr interpolationmode sample-hold
attr title "queue length, vector"
vector 1 ResponseTimeNetwork.SS2 queueLength:vector ETV
attr interpolationmode sample-hold
attr title "queue length, vector"
vector 2 ResponseTimeNetwork.QueueU1 queueLength:vector ETV
attr interpolationmode sample-hold
attr title "queue length, vector"
vector 3 ResponseTimeNetwork.QueueU2 queueLength:vector ETV
attr interpolationmode sample-hold
attr title "queue length, vector"
vector 4 ResponseTimeNetwork.sink lifeTimeU2:vector ETV
attr interpolationmode none
attr title "lifetime of arrived jobs U2, vector"
attr unit s
vector 5 ResponseTimeNetwork.sink lifeTime:vector ETV
attr interpolationmode none
attr title "lifetime of arrived jobs, vector"
attr unit s
vector 6 ResponseTimeNetwork.sink lifeTimeU1:vector ETV
attr interpolationmode none
attr title "lifetime of arrived jobs U1, vector"
attr unit s
2	0	0	0
2	5	1.84668570788	1
2	8	3.371182138142	0
2	20	7.093433900791	1
2	23	7.981328058284	0
2	45	18.992515898439	1
2	46	19.650561141326	0
2	55	22.201535716324	1
2	57	22.594677226912	2
2	58	23.01746171388	1
2	64	24.437479640678	2
2	65	24.445210420817	1
2	69	24.854679370778	2
2	72	26.306453822657	1
2	75	27.638944106653	0
2	81	29.427665686082	1
2	82	29.610088530101	0
2	86	29.9023605393	1
2	87	31.606879661523	0
2	91	32.51539877334	1
2	92	32.970524098084	0
2	96	33.592019211819	1
2	98	34.655356402702	2
2	99	34.845224308514	1
2	103	36.004776058508	2
2	104	36.507354598411	1
2	108	36.509655526367	2
2	109	38.260099555284	1
2	112	39.971935690858	0
2	116	40.631323304235	1
2	117	41.960435213626	0
2	121	42.380276129625	1
2	123	42.663561534814	2
2	124	43.736882872426	1
2	127	45.096695195616	0
2	134	48.05332316003	1
2	135	48.429617840902	0
2	142	49.954360816465	1
2	143	51.532209339657	0
2	147	52.39556713262	1
2	148	53.169374536828	0
2	152	54.098210921509	1
2	153	54.466613311984	0
2	167	58.025291252153	1
2	168	58.274766153574	0
2	172	58.286442741427	1
2	174	59.957641337984	2
2	175	60.128094311349	1
2	178	61.635216400318	0
2	182	62.298343839861	1
2	183	63.076817971014	0
2	194	65.956484481245	1
2	196	66.583581716478	2
2	197	66.754305586137	1
2	203	67.356388460271	2
2	204	68.407386686385	1
2	209	69.733011575707	0
2	213	70.633855915553	1
2	215	70.92656456368	2
2	216	71.601662908972	1
2	219	73.094045122259	0
2	223	73.486183337824	1
2	224	74.401437719271	0
2	228	74.673684360782	1
2	230	75.418369104632	2
2	231	75.883113669336	1
2	234	77.477845712297	0
2	240	78.704061188524	1
2	241	79.390396319807	0
2	251	82.993742228935	1
2	252	84.010146833502	0
2	264	87.494815218151	1
2	265	88.433804909989	0
2	272	90.299360756876	1
2	273	91.6437009181	0
2	282	93.843621896839	1
2	284	94.533168645946	2
2	285	94.690668199315	1
2	288	96.247954460896	0
2	299	99.020349978443	1
2	302	99.746430515974	0
2	314	103.961437037146	1
2	316	103.997598269535	2
2	317	104.788919565557	1
2	322	106.551273224233	0
2	326	106.89425073372	1
2	329	108.039259781977	0
2	336	111.601254208032	1
2	337	111.728964097341	0
2	380	130.348561277064	1
2	383	132.126286345562	0
2	387	132.78749101381	1
2	392	133.842226743726	0
2	401	135.419875386693	1
2	402	136.837877414403	0
2	411	139.118002566026	1
2	412	140.11342097952	0
2	416	140.369425039416	1
2	417	141.507107117055	0
2	426	143.815849097968	1
2	428	144.120126775573	2
2	429	144.263875144375	1
2	432	146.115588749041	0
2	436	147.624547816727	1
2	437	147.963817173456	0
2	475	164.192628736795	1
2	476	165.029117805532	0
2	482	165.853944523472	1
2	483	166.536729306749	0
2	492	169.656929816994	1
2	493	169.676472169369	0
2	497	170.416302916123	1
2	498	171.455332119785	0
2	504	171.78141318531	1
2	505	173.424301035166	0
2	512	175.602624115391	1
2	514	175.934658874277	2
2	515	177.173898381949	1
2	518	178.50667807816	0
2	526	179.559029243881	1
2	528	179.77422337096	2
2	529	180.311369146429	1
2	533	181.087661109415	2
2	534	182.198604449093	1
2	537	183.653521597035	0
2	541	183.894562148009	1
2	542	185.145788010604	0
2	546	186.055753384697	1
2	547	186.953449620328	0
2	551	187.06548450186	1
2	553	187.070831358836	2
2	555	187.697187256841	3
2	556	188.365633820578	2
2	560	188.571067488954	3
2	562	189.651185049107	4
2	563	189.65356853085	3
2	567	190.20065200942	4
2	568	191.334641453087	3
2	573	192.875293743074	2
2	576	194.449635305278	1
2	579	196.338818257138	0
2	583	196.883269813672	1
2	584	197.587609060131	0
2	591	199.576824184269	1
2	593	200.190265548727	2
2	594	200.815923238382	1
2	600	201.058937438301	2
2	602	201.332781640612	3
2	604	201.850710901683	4
2	605	202.499605891876	3
2	609	202.623033478982	4
2	611	203.048173564233	5
2	613	203.066630860609	6
2	615	203.646387140546	7
2	616	204.140380743541	6
2	620	204.393910251488	7
2	621	205.846910375938	6
2	625	206.577503652232	7
2	626	207.269435125053	6
2	630	207.868943170845	7
2	631	209.165347878471	6
2	635	209.829252594794	7
2	636	210.985358383715	6
2	639	212.297667271852	5
2	643	212.357602978932	6
2	644	213.558021789625	5
2	648	214.199183252071	6
2	649	215.342494802758	5
2	653	215.496514367258	6
2	654	217.057406977586	5
2	658	218.666312458591	6
2	659	218.761829370841	5
2	663	218.924154741106	6
2	665	219.553480232749	7
2	666	220.475001188948	6
2	669	221.697171735785	5
2	672	223.042356704197	4
2	675	224.338171920202	3
2	681	225.406802105712	4
2	682	226.282445396877	3
2	686	227.143844263128	4
2	688	227.853827920045	5
2	689	228.174737857676	4
2	693	229.144911248492	5
2	694	230.024293207585	4
2	698	230.323247726979	5
2	700	231.195832875139	6
2	701	231.400632612988	5
2	706	232.60093893262	4
2	710	232.914769599431	5
2	712	233.634580591717	6
2	713	233.929844892979	5
2	717	235.13266016418	6
2	718	235.401738341548	5
2	721	237.081732874573	4
2	725	237.191790019884	5
2	727	238.151444531171	6
2	729	238.820194321305	7
2	730	239.050906861038	6
2	734	240.012966813135	7
2	735	241.034553687484	6
2	739	241.699756704202	7
2	740	242.828754280158	6
2	744	243.030926393342	7
2	745	244.667783296504	6
2	748	245.936543120467	5
2	752	246.312789379769	6
2	753	247.152250884124	5
2	757	247.547326579843	6
2	758	248.453087566816	5
2	762	248.770804594855	6
2	763	249.791231910721	5
2	766	251.653440311201	4
2	769	253.028385690436	3
2	772	254.905291953147	2
2	776	255.424275050591	3
2	778	255.909690281758	4
2	779	256.565591686242	3
2	782	258.476734523312	2
2	786	258.673441252187	3
2	787	260.247901771613	2
2	791	260.791517447959	3
2	793	260.805175489334	4
2	794	262.245250924513	3
2	798	263.361493455792	4
2	799	263.57085176988	3
2	803	264.431201364427	4
2	804	265.415407456667	3
2	807	266.767932523996	2
2	810	268.122485714056	1
2	814	268.175923126301	2
2	815	269.661602554307	1
2	818	271.095586919994	0
2	825	272.802862559379	1
2	827	273.09510270987	2
2	828	274.29304501249	1
2	831	275.963604702638	0
2	835	276.164236916806	1
2	836	277.873924220377	0
2	843	279.550139275124	1
2	845	280.396386862109	2
2	846	280.896586146788	1
2	850	280.999869791375	2
2	851	282.141635133536	1
2	855	282.18536113172	2
2	856	283.451983418339	1
2	860	283.787401257673	2
2	864	284.552991289864	3
2	865	284.707537357346	2
2	869	284.94560119412	3
2	870	286.072739503928	2
2	874	286.6348807561	3
2	875	287.783278644667	2
2	879	288.510136184332	3
2	880	289.332507089735	2
2	883	290.606821630732	1
2	887	291.185243837757	2
2	889	291.666519442998	3
2	891	291.70559969971	4
2	892	292.047255792306	3
2	895	293.470437932783	2
2	899	293.579842167932	3
2	901	294.74299359295	4
2	903	295.036486378193	5
2	904	295.236365456158	4
2	908	295.296630435365	5
2	909	297.100715614134	4
2	913	297.300366337967	5
2	914	298.324763236405	4
2	918	299.873913566668	5
2	919	300.255337270559	4
2	923	301.05064972479	5
2	924	301.512191890949	4
2	927	302.929129535356	3
2	930	304.889205024229	2
2	934	305.274779241901	3
2	935	306.435549489991	2
2	939	306.988833410887	3
2	941	307.660464368134	4
2	942	307.804744498083	3
2	946	307.949820101113	4
2	947	309.28940175979	3
2	951	309.562718268076	4
2	953	309.657191644611	5
2	955	309.721011528618	6
2	956	310.968625211926	5
2	959	312.691980712699	4
2	962	314.579259282561	3
2	966	314.650903279889	4
2	967	316.214703231888	3
2	971	316.242301417337	4
2	973	317.603380447706	5
2	974	317.833824201325	4
2	978	318.031173430642	5
2	980	318.887879489604	6
2	981	319.117472364591	5
2	985	319.567369705996	6
2	986	320.543631112972	5
2	990	320.596278406213	6
2	991	322.425848723972	5
2	995	323.438912483879	6
2	996	324.376442399272	5
2	1000	324.401773583873	6
2	1001	325.647034971998	5
2	1004	327.430192901404	4
2	1008	329.140641156127	5
2	1009	329.410718652257	4
2	1013	329.955541333607	5
2	1014	331.239620555216	4
2	1018	331.310919284947	5
2	1020	332.026721763759	6
2	1022	332.793384121687	7
2	1023	333.157228959934	6
2	1026	334.68261534127	5
2	1030	335.495804114129	6
2	1031	335.95909421465	5
2	1035	336.423796853098	6
2	1037	336.517321747336	7
2	1038	337.237003210398	6
2	1041	339.145910645301	5
2	1045	339.494244875702	6
2	1047	340.756902688668	7
2	1048	341.056084858278	6
2	1051	343.051545593912	5
2	1055	344.058516883949	6
2	1056	344.86322771425	5
2	1060	346.362676488445	6
2	1061	346.779494638765	5
2	1064	348.036350766221	4
2	1068	348.627544937008	5
2	1071	349.841750764312	4
2	1075	350.072589270445	5
2	1077	350.508908406914	6
2	1079	351.591794531661	7
2	1080	351.733417746262	6
2	1084	352.276438729072	7
2	1085	353.139327625023	6
2	1090	354.528244773136	5
2	1094	355.876954868915	6
2	1096	356.419032851191	7
2	1098	356.446266272357	8
2	1099	356.478875601688	7
2	1102	358.322676405893	6
2	1106	359.380981114205	7
2	1107	360.032982537546	6
2	1111	360.751115766846	7
2	1112	361.507228962355	6
2	1116	362.392295499627	7
2	1117	363.463349971012	6
2	1121	364.255685771344	7
2	1122	365.079163166345	6
2	1126	365.913983520716	7
2	1127	366.930358924926	6
2	1131	367.170782361362	7
2	1133	367.590416281746	8
2	1134	368.268660608702	7
2	1138	368.75774427975	8
2	1139	369.63177937644	7
2	1142	371.478782627568	6
2	1148	372.263113768732	7
2	1150	372.56834222724	8
2	1151	373.395262278825	7
2	1155	373.47711376944	8
2	1156	375.22364080029	7
2	1160	375.85281952428	8
2	1162	376.712849778729	9
2	1163	377.220929677248	8
2	1166	378.659200640231	7
2	1170	379.200530936685	8
2	1172	380.212327715297	9
2	1174	380.388194672377	10
2	1175	380.584135254867	9
2	1179	381.376730734697	10
2	1180	382.430841685108	9
2	1184	383.092165033249	10
2	1186	383.762944825093	11
2	1187	383.784407711051	10
2	1191	385.050809187636	11
2	1192	385.247804376319	10
2	1196	385.356599263668	11
2	1197	387.099568599857	10
2	1201	388.334291749764	11
2	1202	388.458977262698	10
2	1206	388.567620884906	11
2	1207	390.169485164083	10
2	1210	391.512289930529	9
2	1215	393.031657129361	8
2	1219	394.521995998392	9
2	1220	394.623368244081	8
2	1223	396.133059243321	7
2	1226	398.057248286552	6
2	1230	398.452282238876	7
2	1232	399.514629798924	8
2	1233	399.658091984525	7
2	1237	399.869002067485	8
2	1239	400.229959630498	9
2	1240	401.459100452833	8
2	1244	402.325148719776	9
2	1247	403.111037341341	8
2	1251	404.015189649628	9
2	1253	404.423024135296	10
2	1254	404.983828689366	9
2	1258	405.120810944184	10
2	1259	406.335092798642	9
2	1263	406.437415186181	10
2	1265	407.33098376541	11
2	1266	407.810306314773	10
2	1269	409.666579795837	9
2	1272	410.987530375667	8
2	1276	411.142221396277	9
2	1278	411.45874593385	10
2	1280	412.118520944994	11
2	1281	412.38002344726	10
2	1285	412.892040449825	11
2	1286	414.25809780436	10
2	1289	416.199794929869	9
2	1293	416.495501709465	10
2	1294	418.057361882388	9
2	1298	418.337271710268	10
2	1299	419.614056828454	9
2	1302	421.358429771498	8
2	1306	422.188664855733	9
2	1308	422.560550850601	10
2	1310	422.591597223112	11
2	1311	422.855251661152	10
2	1315	424.078605009483	11
2	1316	424.430731559195	10
2	1320	425.168166344383	11
2	1322	425.726184884196	12
2	1323	426.073879794613	11
2	1327	426.864979884841	12
2	1328	427.339182326779	11
2	1332	427.800547849036	12
2	1333	429.083530349307	11
2	1337	429.298586756003	12
2	1339	429.396857680888	13
2	1341	430.170762329484	14
2	1342	430.745657156244	13
2	1346	430.962648768086	14
2	1348	432.268758768257	15
2	1349	432.655896403849	14
2	1353	433.252367625046	15
2	1354	434.440868539199	14
2	1358	434.873384083805	15
2	1359	436.42098856049	14
2	1362	437.72244528944	13
2	1366	438.977725177525	14
2	1368	439.520226569842	15
2	1369	439.70157658609	14
2	1373	439.721454070249	15
2	1374	441.682104160659	14
2	1378	441.744358278644	15
2	1379	443.09516300077	14
2	1383	444.09868961593	15
2	1384	444.99503836634	14
2	1388	445.865558412745	15
2	1389	446.797363158896	14
2	1392	448.123880102693	13
2	1396	448.257942085454	14
2	1397	449.429832385502	13
2	1401	449.594356721469	14
2	1403	449.954195927786	15
2	1404	450.670998732208	14
2	1408	450.722362425042	15
2	1409	452.401159477069	14
2	1412	453.752677640154	13
2	1415	455.624598301969	12
2	1419	456.392733490788	13
2	1421	457.268456259054	14
2	1422	457.418951685376	13
2	1426	457.494287103254	14
2	1427	459.014630731031	13
2	1430	460.2305425741	12
2	1434	460.28070833766	13
2	1436	460.576122624058	14
2	1437	462.032209486164	13
2	1441	462.225451466913	14
2	1443	462.638038834613	15
2	1445	463.255041001247	16
2	1446	463.42413002944	15
2	1449	465.021949253999	14
2	1453	465.383334367307	15
2	1455	466.087084429911	16
2	1456	466.938960490398	15
2	1460	468.01832912017	16
2	1461	468.686568743013	15
2	1465	469.063597508044	16
2	1466	470.51006306319	15
2	1470	470.662306384292	16
2	1472	472.015649525987	17
2	1473	472.248101556883	16
2	1477	472.269206859546	17
2	1479	473.71484420658	18
2	1480	473.787306491122	17
2	1484	473.901252506939	18
2	1485	475.50088600947	17
2	1489	475.917050161181	18
2	1490	477.107051707641	17
2	1494	477.894348503761	18
2	1495	478.898340434232	17
2	1499	479.948832237574	18
2	1501	480.280615151274	19
2	1502	480.601512658806	18
2	1505	482.562787235552	17
2	1508	483.875498197997	16
2	1512	485.778858236904	17
2	1513	485.802205299983	16
2	1517	486.693746934728	17
2	1518	487.767376761908	16
2	1522	488.076813533824	17
2	1523	489.295494924696	16
2	1526	491.206694406854	15
2	1530	492.180729859296	16
2	1532	492.458561226545	17
2	1534	492.586496222862	18
2	1535	493.129393796274	17
2	1538	494.752686084086	16
2	1542	494.890759209985	17
2	1544	495.943244135885	18
2	1545	496.028747732775	17
2	1549	497.381382291315	18
2	1551	497.629743714185	19
2	1552	497.788080826239	18
2	1556	499.373929324376	19
2	1557	499.753039686033	18
2	1561	499.767808708639	19
2	1562	501.498909662315	18
2	1565	502.953466088162	17
2	1568	504.455128487037	16
2	1572	506.09049069747	17
2	1573	506.388126285584	16
2	1577	506.977229930089	17
2	1579	507.412045387238	18
2	1580	508.36849401372	17
2	1584	509.770348901552	18
2	1585	510.231966510811	17
2	1589	510.821216509566	18
2	1591	510.943317340134	19
2	1593	510.988524276959	20
2	1595	511.309729336726	21
2	1596	512.13653051334	20
2	1600	513.280144157377	21
2	1601	513.50881995617	20
2	1605	514.148768739481	21
2	1606	514.715619180562	20
2	1610	516.201012892483	21
2	1611	516.56156400221	20
2	1615	516.875810446722	21
2	1616	517.968920811662	20
2	1620	518.120574960139	21
2	1621	519.461399020465	20
2	1625	519.897251510658	21
2	1626	520.969547767216	20
2	1630	521.657067457366	21
2	1631	522.767635865906	20
2	1634	524.42954204178	19
2	1639	526.311676954502	18
2	1643	526.510801878713	19
2	1645	526.545434086121	20
2	1647	526.627087484478	21
2	1648	528.260009625019	20
2	1652	529.05182865467	21
2	1653	529.951615703502	20
2	1656	531.724929617741	19
2	1660	531.732781137488	20
2	1661	533.379560498358	19
2	1665	534.534464246041	20
2	1666	534.641201124923	19
2	1669	536.431543063769	18
2	1672	538.391984010698	17
2	1675	539.718031545566	16
2	1678	541.430367310742	15
2	1682	541.69223518345	16
2	1684	542.097574590217	17
2	1685	543.156125846343	16
2	1688	544.443017477007	15
2	1692	544.499435102314	16
2	1694	544.501787354252	17
2	1695	545.716032306501	16
2	1699	545.83599650424	17
2	1700	547.68167316115	16
2	1704	548.470885878134	17
2	1705	549.054753007391	16
2	1709	549.323662186129	17
2	1710	550.518264145987	16
2	1714	550.811723203943	17
2	1715	552.229967112677	16
2	1719	553.159064913459	17
2	1720	553.504958639132	16
2	1724	554.766461209741	17
2	1725	554.959493768985	16
2	1728	556.452270554217	15
2	1732	556.652067112446	16
2	1733	558.028849160696	15
2	1737	558.275097282369	16
2	1738	559.61830078012	15
2	1742	560.619510903727	16
2	1743	561.161789591635	15
2	1747	562.06974460297	16
2	1748	562.571514162073	15
2	1751	564.290242641071	14
2	1755	564.469124705152	15
2	1757	564.546075406064	16
2	1758	566.113453465166	15
2	1761	567.867738223473	14
2	1765	567.916630617133	15
2	1766	569.428429299618	14
2	1770	570.425371150038	15
2	1771	570.968373315434	14
2	1775	571.090658941732	15
2	1778	572.943050754468	14
2	1781	574.91135867669	13
2	1785	575.286884753149	14
2	1787	575.490632386842	15
2	1788	576.738613866668	14
2	1791	578.124546824422	13
2	1795	578.131146725467	14
2	1796	579.605970507141	13
2	1800	581.287435985708	14
2	1801	581.523922548283	13
2	1805	582.751856289148	14
2	1806	583.31163017175	13
2	1809	585.032219830927	12
2	1812	586.481857144487	11
2	1816	587.6148323576	12
2	1817	588.343545124334	11
2	1821	588.402678964226	12
2	1825	588.906135742316	13
2	1826	589.565503937778	12
2	1830	589.676446011906	13
2	1831	590.905126907331	12
2	1835	591.276767875902	13
2	1837	591.722508340861	14
2	1839	592.101223649452	15
2	1840	592.377414225441	14
2	1843	593.848087946352	13
2	1847	594.062978049472	14
2	1848	595.41020688678	13
2	1851	596.848514986065	12
2	1855	597.259747147451	13
2	1857	597.32549165143	14
2	1858	598.481136649501	13
2	1863	599.737518833232	12
2	1867	599.810713216148	13
2	1869	600.423243327262	14
2	1871	601.29073415499	15
2	1872	601.659896692102	14
2	1876	603.014066060528	15
2	1877	603.547095413906	14
2	1881	603.750602263609	15
2	1882	605.248095997264	14
2	1886	606.100683272934	15
2	1887	607.218277391819	14
2	1891	607.375941132076	15
2	1892	608.543364995187	14
2	1896	608.718452271474	15
2	1897	609.747797242021	14
2	1901	610.677896684187	15
2	1902	611.691423890022	14
2	1907	613.427790264999	13
2	1911	614.762998083629	14
2	1914	615.373535387618	13
2	1918	616.113707924504	14
2	1921	617.000478331586	13
2	1924	618.646032823836	12
2	1928	619.210256455379	13
2	1930	619.843665716651	14
2	1931	619.997482625609	13
2	1935	620.197922879314	14
2	1936	621.769150564847	13
2	1940	622.671705035439	14
2	1941	623.511246128221	13
2	1945	624.06284893007	14
2	1946	624.870999452312	13
2	1950	624.875277017311	14
2	1952	624.895582041974	15
2	1954	625.064570247575	16
2	1955	626.302399545376	15
2	1959	627.006899114217	16
2	1961	627.500309255018	17
2	1963	627.528342087123	18
2	1964	628.042584395435	17
2	1968	628.150573205011	18
2	1969	629.285637128193	17
2	1972	630.91265791769	16
2	1975	632.162657640528	15
2	1979	632.657237556299	16
2	1981	633.061616799239	17
2	1982	633.367720544737	16
2	1986	634.390267931313	17
2	1987	635.321543920439	16
2	1991	635.464742050537	17
2	1992	637.037659007896	16
2	1995	638.89817433155	15
2	1999	639.794487109724	16
2	2000	640.308434797291	15
2	2003	642.080669382427	14
2	2006	643.677985441338	13
2	2009	645.541489330891	12
2	2012	647.176568074736	11
2	2015	648.568441722009	10
2	2019	648.643260498734	11
2	2021	649.165811794417	12
2	2022	650.035363565225	11
2	2025	651.658559806671	10
2	2029	651.92368637803	11
2	2031	652.101588341013	12
2	2032	653.135176654372	11
2	2036	653.471097842251	12
2	2038	653.975350498685	13
2	2039	654.453586281489	12
2	2043	655.868674550214	13
2	2044	655.944687834966	12
2	2048	656.621353971131	13
2	2050	657.217291678784	14
2	2052	657.819309430981	15
2	2053	657.876699410218	14
2	2056	659.380593704085	13
2	2060	659.962545277019	14
2	2061	660.588559046972	13
2	2065	661.480508058778	14
2	2066	661.933817825119	13
2	2070	661.976327983544	14
2	2072	662.397367414793	15
2	2073	663.243679838466	14
2	2077	664.064621318036	15
2	2078	664.996006729292	14
2	2081	666.627639637167	13
2	2085	666.955233895101	14
2	2086	668.058077962721	13
2	2090	668.962062159198	14
2	2094	669.761304188397	15
2	2095	669.853067909392	14
2	2098	671.566845664965	13
2	2101	673.249267295586	12
2	2105	674.427944014716	13
2	2106	674.508873985732	12
2	2110	675.073793749764	13
2	2112	676.359428535548	14
2	2113	676.478499076167	13
2	2117	676.695621242336	14
2	2118	677.74749733361	13
2	2122	678.73892567012	14
2	2123	679.211685075448	13
2	2127	679.886687287776	14
2	2129	680.630960418749	15
2	2130	680.76208027734	14
2	2134	682.37157265124	15
2	2135	682.643373073102	14
2	2139	684.020445096572	15
2	2141	684.547057359205	16
2	2142	684.566682205373	15
2	2145	686.363836089173	14
2	2148	687.860334301019	13
2	2152	688.39454898608	14
2	2154	688.553262309126	15
2	2155	689.399778944464	14
2	2158	690.76373685489	13
2	2162	691.028764874815	14
2	2163	692.736816066527	13
2	2166	694.425039139041	12
2	2169	696.245421922044	11
2	2173	696.2641896971	12
2	2174	697.570771246799	11
2	2177	698.989927807846	10
2	2180	700.29638634196	9
2	2183	701.568817192153	8
2	2187	702.006741001813	9
2	2189	702.738267544949	10
2	2190	702.771604649746	9
2	2194	704.077177426668	10
2	2195	704.254194246815	9
2	2199	704.731593084125	10
2	2201	705.145434619321	11
2	2202	706.139070289047	10
2	2206	706.235427216551	11
2	2208	706.257136898846	12
2	2210	706.699047696372	13
2	2211	707.382588557364	12
2	2214	709.06532839092	11
2	2218	710.032364033366	12
2	2221	710.636319753738	11
2	2225	711.30219959345	12
2	2227	711.407504756425	13
2	2228	711.906160039106	12
2	2232	713.419570335028	13
2	2233	713.475999219739	12
2	2237	714.664869362367	13
2	2238	715.315595320822	12
2	2241	716.583500720212	11
2	2245	717.50954353946	12
2	2246	717.888219881454	11
2	2249	719.594539860473	10
2	2253	720.581592925211	11
2	2255	720.860509449234	12
2	2256	721.013424942479	11
2	2259	722.669205632084	10
2	2262	724.539566335105	9
2	2266	724.616390183747	10
2	2268	725.958403205201	11
2	2270	726.294921810415	12
2	2271	726.384774052933	11
2	2275	727.517614731823	12
2	2277	727.650801451823	13
2	2279	727.902275850048	14
2	2280	728.107276841089	13
2	2284	728.386382946864	14
2	2286	729.453686106511	15
2	2287	729.727412369311	14
2	2292	731.121792668127	13
2	2296	731.60574227269	14
2	2298	732.383053785527	15
2	2299	732.416890953504	14
2	2303	732.465251477076	15
2	2305	732.628949856014	16
2	2307	732.71536769305	17
2	2309	733.318311948141	18
2	2310	733.772432084777	17
2	2313	735.220966606238	16
2	2317	735.408284818727	17
2	2318	736.977471070946	16
2	2322	737.320631205402	17
2	2324	738.044892462671	18
2	2326	738.48765091972	19
2	2327	738.51180727093	18
2	2331	738.541827408123	19
2	2333	738.738064932016	20
2	2334	740.059475294524	19
2	2338	740.18875212077	20
2	2339	741.612674932764	19
2	2343	741.885146096546	20
2	2345	742.285537137268	21
2	2347	743.024549833616	22
2	2348	743.457581932866	21
2	2352	744.198710983148	22
2	2353	744.884122820408	21
2	2357	744.89588641744	22
2	2359	745.963009116296	23
2	2360	746.310313238227	22
2	2364	746.594676728878	23
2	2366	747.031678015243	24
2	2367	748.253073091642	23
2	2371	748.617678445459	24
2	2372	749.472562132985	23
2	2376	750.880079995403	24
2	2377	750.882466146559	23
2	2380	752.601446851552	22
2	2384	752.927583306509	23
2	2387	754.213378465757	22
2	2391	755.830822205776	23
2	2392	756.014615140878	22
2	2395	757.418413499952	21
2	2399	757.625883794391	22
2	2400	758.925459337816	21
2	2404	760.477329881336	22
2	2405	760.81072470548	21
2	2409	761.398857548346	22
2	2410	762.228181250416	21
2	2414	762.368031090696	22
2	2417	764.103373722196	21
2	2420	765.304312088363	20
2	2423	767.058237869501	19
2	2427	767.467845327915	20
2	2428	768.52289773079	19
2	2432	768.873933030918	20
2	2434	769.053103046436	21
2	2435	769.839670092449	20
2	2439	770.256048711251	21
2	2440	771.332312224083	20
2	2443	772.810553791583	19
2	2447	773.189550943775	20
2	2450	774.334931734413	19
2	2454	775.899922535629	20
2	2455	775.939298561797	19
2	2458	777.355969627224	18
2	2462	778.045705516617	19
2	2464	778.252590272518	20
2	2466	778.706492191255	21
2	2467	779.260390955791	20
2	2471	779.961665258671	21
2	2472	780.886046855174	20
2	2475	782.147990008093	19
2	2478	783.965847980812	18
2	2482	784.268750353028	19
2	2483	785.704298773244	18
2	2487	785.979240089301	19
2	2489	786.65130853876	20
2	2490	787.077887000166	19
2	2493	788.86625943242	18
2	2497	789.644201795662	19
2	2498	790.339646163978	18
2	2502	790.710422112805	19
2	2503	791.588877110206	18
2	2507	791.674156633066	19
2	2508	793.223641018778	18
2	2512	793.290217597463	19
2	2513	794.63716115842	18
2	2517	795.262175756904	19
2	2519	795.82359007716	20
2	2520	796.041306455642	19
2	2524	796.53559157703	20
2	2525	797.643455403321	19
2	2528	799.512210931838	18
2	2532	800.458439608416	19
2	2534	800.590768938778	20
2	2536	800.703632024738	21
2	2538	801.404205614082	22
2	2539	801.498964029015	21
2	2542	802.703239965648	20
2	2546	803.615018711047	21
2	2547	804.657703594514	20
2	2551	804.686226657341	21
2	2553	804.757278635559	22
2	2554	806.502807644033	21
2	2558	806.560828962762	22
2	2561	808.188659467572	21
2	2564	809.520351144137	20
2	2568	809.785877913018	21
2	2569	810.890616557771	20
2	2572	812.702494210774	19
2	2576	813.884185006129	20
2	2577	814.041574122408	19
2	2580	815.581558100717	18
2	2584	817.49553096791	19
2	2585	817.544427524904	18
2	2589	818.902218632105	19
2	2590	819.308135148721	18
2	2594	819.55281089642	19
2	2595	820.855621868396	18
2	2599	821.767869990044	19
2	2600	822.226279568882	18
2	2603	823.55165412149	17
2	2607	823.810088535819	18
2	2608	825.259457433061	17
2	2612	826.897653270603	18
2	2613	827.067591732019	17
2	2616	828.993466532254	16
2	2619	830.311123139621	15
2	2623	830.507417380573	16
2	2625	830.931347375086	17
2	2626	832.061955270753	16
2	2629	833.687447013729	15
2	2633	835.026715169793	16
2	2634	835.04878270349	15
2	2638	835.501562267581	16
2	2640	836.455671346929	17
2	2641	836.644095006422	16
2	2644	838.44257178402	15
2	2648	838.656823494923	16
2	2650	839.520128958728	17
2	2651	839.764252459281	16
2	2655	839.894196426885	17
2	2656	841.278198487335	16
2	2659	843.167663249211	15
2	2662	844.958690523007	14
2	2665	846.248408407741	13
2	2669	846.541784572691	14
2	2671	846.639039699664	15
2	2672	848.154512397223	14
2	2676	848.320653053908	15
2	2678	848.725445334506	16
2	2679	849.929301518225	15
2	2683	850.130799667085	16
2	2684	851.471465929248	15
2	2688	851.916760081715	16
2	2689	853.15981659221	15
2	2693	853.179022397917	16
2	2694	854.684655283415	15
2	2698	854.819078238683	16
2	2700	856.354842595312	17
2	2701	856.502720718668	16
2	2705	857.793049065421	17
2	2706	858.254913004325	16
2	2710	859.122230689155	17
2	2711	860.214775898331	16
2	2715	861.279205692895	17
2	2716	861.438625724078	16
2	2720	862.861854916281	17
2	2722	863.027650500785	18
2	2723	863.412266965234	17
2	2727	864.328818674125	18
2	2728	864.78229779175	17
2	2731	866.597475566738	16
2	2735	867.854658378812	17
2	2736	867.968681958154	16
2	2740	867.973733908494	17
2	2741	869.615870229364	16
2	2745	869.729677243134	17
2	2746	870.934519920521	16
2	2749	872.197351108701	15
2	2753	873.166566067402	16
2	2754	874.152689689794	15
2	2758	874.571412189014	16
2	2759	875.371439791308	15
2	2762	877.043232732662	14
2	2765	878.501181753189	13
2	2768	880.025380183407	12
2	2772	880.346440375065	13
2	2773	881.323763431259	12
2	2777	882.550304965293	13
2	2779	882.615707097975	14
2	2780	883.262930790358	13
2	2784	883.394713765574	14
2	2785	884.729170437739	13
2	2788	886.482350284629	12
2	2792	887.08478572891	13
2	2794	887.797844080408	14
2	2795	888.316319187753	13
2	2799	889.048804536081	14
2	2800	890.093276138067	13
2	2804	890.206359033168	14
2	2806	890.329244689647	15
2	2808	890.387570972155	16
2	2809	891.40609214215	15
2	2813	892.034336646358	16
2	2814	892.60964921622	15
2	2818	892.614386687299	16
2	2820	893.985834300359	17
2	2821	894.149490201123	16
2	2824	895.645175837748	15
2	2828	896.344999912851	16
2	2830	896.761448988797	17
2	2831	896.977522422768	16
2	2835	897.94187612227	17
2	2836	898.893764421739	16
2	2840	899.206945494068	17
2	2842	899.970979436113	18
2	2844	900.06132635726	19
2	2846	900.428478746033	20
2	2847	900.523132727318	19
2	2851	900.737933409341	20
2	2852	902.138985217199	19
2	2856	902.337075230143	20
2	2858	903.388537940174	21
2	2859	903.977809150167	20
2	2863	904.680600440195	21
2	2865	904.874812085393	22
2	2866	905.714216922619	21
2	2870	905.923623053329	22
2	2871	907.428715747431	21
2	2875	908.498814305173	22
2	2877	908.728113039372	23
2	2878	908.984014865965	22
2	2882	909.597767260016	23
2	2884	910.371489383931	24
2	2885	910.624219543696	23
2	2889	911.287082287089	24
2	2890	911.874834400625	23
2	2894	911.993921034277	24
2	2895	913.866231192672	23
2	2899	914.482827024961	24
2	2900	915.504942815588	23
2	2904	915.67398331092	24
2	2905	917.17365939843	23
2	2909	917.18482303993	24
2	2911	917.653946973287	25
2	2912	918.781728261174	24
2	2917	920.450478574843	23
2	2920	921.705373396934	22
2	2924	922.874253195265	23
2	2926	922.881360094589	24
2	2927	923.422975626052	23
2	2931	924.372409647235	24
2	2932	924.713433348038	23
2	2936	926.091614928295	24
2	2937	926.55394698272	23
2	2941	927.286982762323	24
2	2942	927.90548068902	23
2	2946	928.496073868567	24
2	2947	929.851745291636	23
2	2951	929.862971768559	24
2	2953	930.160917923177	25
2	2956	931.6046025038	24
2	2959	933.355195627571	23
2	2962	935.34669491502	22
2	2966	936.854355327877	23
2	2967	937.203053704859	22
2	2971	937.867999110878	23
2	2972	938.836254404509	22
2	2976	938.982029780113	23
2	2977	940.125245398866	22
2	2981	940.937982747816	23
2	2982	941.808122434119	22
2	2986	942.277022729937	23
2	2988	942.475449439515	24
2	2990	943.030095863823	25
2	2991	943.685940634484	24
2	2994	944.942866323913	23
2	2998	945.184904607062	24
2	3000	945.652014416795	25
2	3001	946.227152715276	24
2	3005	946.628906427696	25
2	3006	947.600920283074	24
2	3010	948.730200739192	25
2	3011	949.424877741026	24
2	3015	949.505609960792	25
2	3016	950.785017267267	24
2	3019	952.086406706112	23
2	3023	952.971858752186	24
2	3025	952.984079903631	25
2	3026	953.416644657242	24
2	3029	955.023068803201	23
2	3033	956.019537941702	24
2	3034	956.959025444674	23
2	3037	958.640472994211	22
2	3041	958.793451080849	23
2	3043	959.510680612202	24
2	3044	960.194870658989	23
2	3048	960.694152304407	24
2	3050	961.779954039865	25
2	3052	961.821468955837	26
2	3053	961.976159157815	25
2	3056	963.708737663204	24
2	3060	964.113752906801	25
2	3062	964.254473695831	26
2	3064	965.271444583547	27
2	3065	965.604418214249	26
2	3068	967.377415131057	25
2	3072	967.501251393831	26
2	3074	968.422134018777	27
2	3075	969.092463002378	26
2	3079	969.4431580797	27
2	3081	970.070188198296	28
2	3082	970.699367579097	27
2	3086	971.901199098201	28
2	3087	971.988186294796	27
2	3090	973.526177575091	26
2	3093	975.248353107857	25
2	3098	976.887626278984	24
2	3102	976.991627689644	25
2	3103	978.690919729347	24
2	3107	979.390580463126	25
2	3109	979.683358712411	26
2	3111	979.942381890108	27
2	3112	980.669536638843	26
2	3115	982.385350324052	25
2	3119	983.150371202394	26
2	3121	983.82922993588	27
2	3123	983.979075062264	28
2	3124	984.212269094984	27
2	3128	984.945528585712	28
2	3129	985.63023424803	27
2	3132	986.993364324632	26
2	3136	987.808820255723	27
2	3138	988.041081342671	28
2	3140	988.057016637513	29
2	3141	988.47514632533	28
2	3144	990.445297894838	27
2	3148	991.892620236818	28
2	3149	991.909928191292	27
2	3153	993.220494013731	28
2	3154	993.684739623803	27
2	3158	994.625423944715	28
2	3160	995.451404960591	29
2	3161	995.609308110575	28
2	3165	996.325447199701	29
2	3167	996.567617671362	30
2	3168	997.362884140971	29
2	3172	998.693004017904	30
2	3173	999.223019902433	29
2	3176	1001.076667587856	28
2	3180	1001.84560060547	29
2	3182	1002.280376100196	30
2	3184	1002.399754375078	31
2	3185	1002.816995666014	30
2	3189	1003.447475947952	31
2	3190	1004.785309628608	30
2	3194	1005.158181049403	31
2	3196	1005.287853288654	32
2	3197	1006.03850404455	31
2	3201	1006.878361479139	32
2	3203	1006.950771667664	33
2	3205	1007.367600322439	34
2	3206	1007.406203539694	33
2	3210	1007.459577171727	34
2	3211	1009.02545250638	33
2	3215	1009.188935542698	34
2	3216	1010.798341082433	33
2	3219	1012.402680622624	32
2	3223	1013.007496757533	33
2	3225	1013.331837921427	34
2	3227	1013.506756110906	35
2	3228	1013.698129869649	34
2	3231	1014.999360498437	33
2	3235	1015.065327124499	34
2	3236	1016.335697947094	33
2	3240	1017.075375735072	34
2	3241	1018.121249259287	33
2	3245	1018.27829492006	34
2	3246	1019.603356578597	33
2	3249	1021.361218230636	32
2	3252	1022.808286949271	31
2	3256	1022.993620131335	32
2	3258	1023.152384813184	33
2	3259	1024.682682809444	32
2	3263	1025.370376439324	33
2	3265	1025.679260942367	34
2	3266	1026.108321404667	33
2	3269	1027.809398205416	32
2	3273	1027.84296176826	33
2	3277	1028.993731482355	34
2	3278	1029.196732158983	33
2	3281	1031.090010980913	32
2	3285	1031.72482817373	33
2	3286	1032.349892813922	32
2	3290	1032.951249977243	33
2	3291	1034.256265785196	32
2	3295	1035.674859575935	33
2	3296	1036.114603560255	32
2	3300	1036.874095181627	33
2	3302	1037.36155423905	34
2	3303	1037.442088918598	33
2	3306	1038.797350010858	32
2	3309	1040.137070413516	31
2	3313	1040.301887791057	32
2	3315	1041.269950217184	33
2	3317	1041.678391377732	34
2	3318	1041.831211273023	33
2	3322	1042.357240159097	34
2	3324	1042.406857641982	35
2	3326	1042.670313887373	36
2	3327	1043.150492850342	35
2	3330	1044.399955860549	34
2	3334	1044.40030404189	35
2	3335	1045.989533788176	34
2	3339	1046.09816796435	35
2	3341	1046.309320244056	36
2	3342	1047.726386805461	35
2	3346	1047.843669578236	36
2	3347	1049.338419478969	35
2	3351	1049.549851587008	36
2	3353	1050.807720379846	37
2	3354	1050.979072059528	36
2	3358	1052.185261624506	37
2	3359	1052.797497912147	36
2	3362	1054.013585546263	35
2	3365	1055.740699569531	34
2	3369	1056.129578427212	35
2	3370	1057.510933637642	34
2	3374	1057.522367536757	35
2	3376	1057.58499702689	36
2	3377	1059.27985923218	35
2	3380	1061.068138261162	34
2	3384	1062.105778280371	35
2	3385	1062.903979215421	34
2	3388	1064.307193153933	33
2	3391	1066.149703406565	32
2	3394	1067.832402915903	31
2	3398	1068.205876684319	32
2	3400	1068.557695626523	33
2	3401	1069.175636258372	32
2	3405	1069.238925674186	33
2	3407	1070.461554482633	34
2	3408	1070.549132734002	33
2	3411	1071.963944615447	32
2	3414	1073.402284175553	31
2	3418	1073.731255521539	32
2	3420	1075.325311657836	33
2	3421	1075.390344128036	32
2	3424	1077.265158012533	31
2	3427	1078.564145168313	30
2	3431	1079.432887311725	31
2	3433	1079.540023248399	32
2	3435	1080.384449804573	33
2	3436	1080.390813974128	32
2	3440	1081.154739980431	33
2	3441	1081.815732603543	32
2	3445	1082.770006372201	33
2	3446	1083.398527621501	32
2	3453	1084.862232410372	31
2	3457	1084.985920210668	32
2	3458	1086.838978706137	31
2	3462	1087.523907477564	32
2	3463	1088.19284034709	31
2	3466	1089.604181166203	30
2	3469	1091.053679809184	29
2	3473	1092.303734920482	30
2	3474	1092.999688757421	29
2	3478	1093.191686772577	30
2	3481	1094.896963153431	29
2	3485	1095.779675489414	30
2	3487	1095.913709166121	31
2	3488	1096.538343797648	30
2	3492	1097.709424062097	31
2	3493	1097.861803996028	30
2	3497	1098.477891187306	31
2	3498	1099.150561660366	30
2	3501	1100.682888743119	29
2	3505	1102.096039921656	30
2	3506	1102.122274304019	29
2	3509	1104.078985586041	28
2	3513	1104.881773485005	29
2	3514	1105.31583723093	28
2	3518	1105.9920891469	29
2	3520	1106.331220138055	30
2	3522	1106.441063021089	31
2	3523	1106.522555506626	30
2	3527	1107.33420391653	31
2	3529	1107.357775015453	32
2	3530	1107.785946253897	31
2	3534	1108.586794610528	32
2	3535	1109.040907295817	31
2	3539	1109.326324160055	32
2	3540	1110.284697305062	31
2	3544	1110.508063659689	32
2	3545	1111.864269857132	31
2	3548	1113.772275997722	30
2	3552	1114.003837299188	31
2	3553	1115.371999719763	30
2	3557	1115.538303414557	31
2	3558	1116.590488000983	30
2	3562	1117.897217269501	31
2	3563	1118.220815645555	30
2	3567	1118.37345726818	31
2	3568	1119.803003464291	30
2	3572	1119.810406898395	31
2	3574	1120.002666467605	32
2	3576	1120.528338534753	33
2	3577	1121.640019344004	32
2	3581	1122.907497242696	33
2	3582	1123.182168712864	32
2	3586	1123.476161138938	33
2	3588	1124.709959430929	34
2	3589	1124.99946858606	33
2	3593	1125.919360593784	34
2	3595	1126.129548665198	35
2	3596	1126.878491080205	34
2	3600	1127.936806306054	35
2	3601	1128.76000124498	34
2	3605	1129.984849944569	35
2	3606	1130.271190277885	34
2	3610	1132.017351033635	35
2	3611	1132.190472691345	34
2	3614	1133.878393555085	33
2	3618	1134.483820565701	34
2	3620	1134.860743793705	35
2	3621	1135.568796985249	34
2	3624	1136.946413830507	33
2	3628	1138.674485006119	34
2	3629	1138.808707530636	33
2	3632	1140.055483958523	32
2	3636	1141.268849559688	33
2	3637	1142.03077725603	32
2	3642	1143.456375650901	31
2	3645	1144.814687304597	30
2	3650	1146.329743846718	29
2	3654	1146.809711103238	30
2	3656	1146.848258527759	31
2	3658	1147.360803362723	32
2	3659	1147.666471719209	31
2	3663	1147.861639344598	32
2	3665	1148.535350619759	33
2	3668	1149.034261205446	32
2	3672	1149.416489251974	33
2	3674	1150.391179042455	34
2	3676	1150.493533465342	35
2	3677	1150.82987289748	34
2	3681	1151.517233921823	35
2	3683	1151.676839520824	36
2	3684	1152.803361558196	35
2	3688	1153.299934926898	36
2	3690	1153.674241430354	37
2	3692	1154.377531749874	38
2	3693	1154.793673792508	37
2	3697	1154.901239538954	38
2	3699	1156.155992961092	39
2	3700	1156.793072986257	38
2	3703	1158.45242034274	37
2	3707	1160.085500688473	38
2	3708	1160.311290159289	37
2	3712	1161.540306677993	38
2	3714	1162.182158087863	39
2	3715	1162.185197711203	38
2	3718	1163.430529566694	37
2	3721	1164.916035843667	36
2	3725	1166.462907025095	37
2	3726	1166.482221183394	36
2	3730	1167.429760415098	37
2	3731	1168.237811726917	36
2	3735	1169.009638506339	37
2	3736	1170.157742930416	36
2	3740	1170.213988878674	37
2	3742	1170.285815168969	38
2	3744	1171.00041968983	39
2	3746	1171.185672739238	40
2	3748	1171.407648368497	41
2	3750	1171.504763744315	42
2	3751	1171.655940803725	41
2	3755	1171.935089199498	42
2	3757	1172.64986524192	43
2	3760	1173.459782485503	42
2	3763	1175.425164317551	41
2	3767	1176.715759641608	42
2	3768	1176.872427806842	41
2	3771	1178.839196286562	40
2	3775	1180.481804912814	41
2	3776	1180.651281341377	40
2	3780	1181.322614259323	41
2	3781	1182.18270478158	40
2	3785	1183.392983170222	41
2	3786	1183.603379712838	40
2	3790	1183.672201228262	41
2	3791	1185.207160177293	40
2	3795	1185.325397556646	41
2	3798	1186.829337392586	40
2	3802	1188.076367877632	41
2	3803	1188.323271580997	40
2	3807	1189.354902789024	41
2	3809	1189.946860597196	42
2	3810	1190.185049817178	41
2	3814	1190.488856948704	42
2	3816	1190.536872670111	43
2	3818	1190.961776860285	44
2	3819	1191.737695186052	43
2	3822	1193.048728799287	42
2	3826	1194.120950282794	43
2	3827	1194.586472991507	42
2	3830	1196.356697716031	41
2	3834	1197.916362879576	42
2	3835	1198.199590027917	41
2	3839	1198.418870305316	42
2	3841	1199.254959981906	43
2	3842	1199.988649228614	42
2	3846	1200.214913412895	43
2	3848	1201.435517874212	44
2	3849	1201.485565469068	43
2	3852	1202.697481109973	42
2	3856	1203.378605781596	43
2	3858	1204.008914077264	44
2	3859	1204.628253835838	43
2	3863	1205.266824156856	44
2	3865	1206.081217848852	45
2	3866	1206.498685794536	44
2	3870	1206.667285736792	45
2	3871	1208.174283758763	44
2	3877	1209.820847256419	45
2	3878	1209.905794040326	44
2	3882	1211.270582256408	45
2	3883	1211.707780383181	44
2	3888	1213.681030811023	43
2	3891	1215.025864669334	42
2	3895	1215.485245019873	43
2	3897	1215.946178191135	44
2	3898	1216.760243468571	43
2	3901	1218.404382606808	42
2	3904	1220.243143892314	41
2	3908	1220.384161162403	42
2	3910	1220.934224321564	43
2	3911	1222.219000773903	42
2	3914	1223.801665776435	41
2	3918	1223.952103456118	42
2	3920	1224.325541662117	43
2	3921	1225.084508840952	42
2	3925	1225.840368080156	43
2	3926	1226.352826374795	42
2	3931	1227.89238748106	41
2	3935	1228.337649817772	42
2	3937	1229.361822471973	43
2	3938	1229.696148898479	42
2	3942	1229.725550932863	43
2	3943	1231.539493739259	42
2	3947	1231.732735120824	43
2	3949	1231.907965629859	44
2	3950	1233.105551237826	43
2	3953	1235.064867286783	42
2	3957	1235.552513528742	43
2	3959	1236.10722013829	44
2	3961	1236.585325545087	45
2	3962	1236.718444700379	44
2	3966	1237.55608301287	45
2	3968	1237.942976175707	46
2	3969	1238.659296980899	45
2	3973	1239.595476446348	46
2	3974	1240.071827843998	45
2	3978	1241.609301003059	46
2	3979	1242.038735760961	45
2	3983	1242.105778336171	46
2	3984	1243.597928228256	45
2	3988	1244.366913351518	46
2	3989	1245.587285777022	45
2	3993	1245.693909445509	46
2	3994	1246.859858507876	45
2	3998	1247.198157759249	46
2	3999	1248.076875420873	45
2	4003	1248.37682327801	46
2	4005	1249.290586607266	47
2	4006	1249.866360006695	46
2	4010	1250.083289221216	47
2	4012	1250.195325438165	48
2	4014	1250.624219723627	49
2	4016	1251.09404276604	50
2	4017	1251.705506332432	49
2	4021	1253.01278667579	50
2	4022	1253.177624717941	49
2	4025	1254.660184703236	48
2	4028	1256.115679206913	47
2	4031	1258.045985248712	46
2	4035	1259.117107143318	47
2	4037	1259.902397236138	48
2	4038	1259.99586444593	47
2	4042	1261.201953523306	48
2	4043	1261.214160551158	47
2	4046	1263.182805387517	46
2	4050	1263.408258237412	47
2	4052	1264.888861443076	48
2	4053	1264.910090269921	47
2	4057	1265.934044990382	48
2	4058	1266.315697001507	47
2	4062	1266.920618682705	48
2	4063	1268.136434042109	47
2	4066	1269.368560889205	46
2	4070	1269.974154615221	47
2	4072	1270.08939707022	48
2	4074	1270.284221217818	49
2	4075	1271.265114696166	48
2	4079	1271.341744335503	49
2	4081	1271.614316938441	50
2	4082	1272.844707104406	49
2	4086	1273.277736256216	50
2	4087	1274.079014947666	49
2	4090	1276.0543665333	48
2	4094	1277.253560740818	49
2	4095	1277.422414308628	48
2	4098	1278.809910565829	47
2	4101	1280.779680275759	46
2	4104	1282.734411852462	45
2	4107	1284.299451986169	44
2	4111	1284.591439003534	45
2	4112	1286.293124119965	44
2	4115	1288.016326678758	43
2	4118	1289.602790111517	42
2	4122	1290.496967109915	43
2	4123	1291.495713333999	42
2	4127	1291.504540889361	43
2	4129	1292.514124571301	44
2	4130	1292.878653399487	43
2	4134	1294.243243457789	44
2	4135	1294.257676197802	43
2	4139	1294.662355023892	44
2	4140	1295.524723989358	43
2	4144	1297.09486813055	44
2	4145	1297.45734467267	43
2	4149	1298.124801575849	44
2	4151	1298.728837556558	45
2	4152	1299.020452099693	44
2	4155	1300.892732480382	43
2	4159	1301.504307494761	44
2	4160	1302.325194969428	43
2	4163	1304.250817016539	42
2	4167	1305.243949251539	43
2	4168	1306.081531299305	42
2	4172	1306.382609795321	43
2	4174	1307.263339595292	44
2	4175	1307.872133031142	43
2	4178	1309.660836361748	42
2	4182	1309.784525289825	43
2	4183	1311.068388126072	42
2	4186	1312.826338710849	41
2	4189	1314.639614829262	40
2	4193	1314.755332580541	41
2	4195	1315.871442058651	42
2	4197	1316.39506361133	43
2	4198	1316.418815703531	42
2	4202	1316.41997368727	43
2	4204	1316.984692077843	44
2	4205	1317.914523731013	43
2	4209	1318.601813303343	44
2	4210	1319.620302833458	43
2	4214	1320.014078997144	44
2	4215	1321.503237978955	43
2	4219	1321.535847434465	44
2	4220	1323.214311929447	43
2	4224	1323.418525329352	44
2	4226	1323.863920957406	45
2	4227	1324.479102230099	44
2	4230	1326.017377847833	43
2	4233	1327.517336139297	42
2	4237	1327.678661819286	43
2	4238	1329.138880986748	42
2	4242	1330.634698136022	43
2	4243	1331.118972671805	42
2	4247	1331.195874986614	43
2	4248	1332.56166438519	42
2	4252	1333.194409503172	43
2	4253	1334.071598408771	42
2	4257	1335.851234984046	43
2	4258	1335.962913848301	42
2	4261	1337.790276192901	41
2	4265	1338.405988823036	42
2	4266	1339.207685856921	41
2	4272	1340.21560894543	42
2	4274	1340.400618535084	43
2	4275	1340.547168336091	42
2	4279	1341.062201735272	43
2	4280	1342.15757654461	42
2	4284	1342.722448052917	43
2	4285	1343.698224667487	42
2	4288	1345.421073950482	41
2	4291	1347.399047941183	40
2	4294	1348.786459780139	39
2	4298	1349.0784075251	40
2	4300	1349.11678756979	41
2	4301	1350.05321180432	40
2	4305	1350.179941444565	41
2	4306	1351.571927337748	40
2	4310	1352.084570290159	41
2	4312	1352.32174637971	42
2	4313	1353.537331110266	41
2	4316	1355.22337430234	40
2	4319	1356.996971571659	39
2	4323	1357.834039670828	40
2	4325	1357.88742913525	41
2	4326	1358.647685000328	40
2	4330	1360.22812918938	41
2	4331	1360.350245959526	40
2	4335	1360.635728880861	41
2	4336	1362.013246633513	40
2	4340	1362.917209734468	41
2	4342	1363.215323961045	42
2	4344	1363.557877897886	43
2	4345	1363.624064903548	42
2	4349	1364.478432682508	43
2	4350	1364.931701987451	42
2	4353	1366.701838924578	41
2	4357	1367.569389563529	42
2	4359	1368.568468847378	43
2	4360	1368.664670382282	42
2	4363	1369.954124729736	41
2	4367	1371.231863060866	42
2	4369	1371.249027811177	43
2	4373	1371.693476451954	44
2	4374	1371.912617002083	43
2	4378	1373.655624421058	44
2	4379	1373.833285989268	43
2	4383	1374.022477635115	44
2	4385	1374.433961842764	45
2	4386	1375.409881982422	44
2	4389	1376.700805375753	43
2	4392	1378.047103916695	42
2	4396	1378.141678471562	43
2	4398	1378.301553779832	44
2	4400	1378.619798056524	45
2	4401	1379.366793374186	44
2	4405	1380.166534427554	45
2	4406	1380.921313809072	44
2	4409	1382.29812482505	43
2	4412	1383.556280444589	42
2	4415	1385.124535024379	41
2	4419	1385.736690264857	42
2	4421	1386.113984685276	43
2	4422	1386.931471566137	42
2	4426	1387.383267762564	43
2	4427	1388.538988248285	42
2	4431	1389.158379502552	43
2	4432	1390.031022830334	42
2	4435	1391.944971543391	41
2	4439	1393.565614553814	42
2	4440	1393.786132561442	41
2	4444	1393.937446644866	42
2	4446	1393.943156312146	43
2	4447	1395.300926912789	42
2	4451	1395.535425619276	43
2	4452	1396.96440700407	42
2	4455	1398.27131310108	41
2	4459	1398.403564375935	42
2	4460	1399.49922019842	41
2	4464	1399.688766515999	42
2	4465	1400.761859451261	41
2	4468	1402.27052251364	40
2	4472	1403.94907730388	41
2	4473	1404.21200776494	40
2	4477	1405.127496776664	41
2	4478	1405.872259030145	40
2	4482	1407.034040647247	41
2	4483	1407.59302139825	40
2	4487	1409.197204574112	41
2	4488	1409.282285608564	40
2	4492	1409.653532310085	41
2	4494	1410.030759547674	42
2	4495	1411.24503035399	41
2	4499	1411.330752814205	42
2	4501	1411.684568160272	43
2	4503	1412.053742873631	44
2	4504	1413.058571892445	43
2	4507	1414.406629345221	42
2	4511	1414.602076438779	43
2	4512	1416.247512236265	42
2	4515	1417.561198147041	41
2	4519	1418.590587388204	42
2	4520	1418.94611707854	41
2	4523	1420.79558748084	40
2	4527	1421.602990774872	41
2	4528	1422.729217752655	40
2	4531	1424.629613013593	39
2	4535	1425.882592024088	40
2	4536	1426.446047870097	39
2	4540	1427.180636393509	40
2	4541	1427.704480182966	39
2	4545	1428.762753132396	40
2	4546	1429.37497839502	39
2	4550	1429.671705617578	40
2	4551	1431.244153079232	39
2	4555	1431.82519233623	40
2	4556	1432.737405360332	39
2	4559	1434.514935801765	38
2	4563	1434.962888205743	39
2	4564	1435.909440882718	38
2	4568	1435.995080098217	39
2	4570	1437.828563730857	40
2	4571	1437.854947796864	39
2	4575	1438.303459547666	40
2	4576	1439.424332376411	39
2	4580	1439.501633287596	40
2	4581	1441.306253223521	39
2	4585	1441.522868684264	40
2	4586	1443.057698487145	39
2	4589	1444.943941572894	38
2	4593	1445.133033282472	39
2	4594	1446.36182365625	38
2	4599	1448.121627376814	37
2	4602	1449.440370881957	36
2	4606	1450.085851118459	37
2	4607	1450.793898053681	36
2	4610	1452.75299444816	35
2	4613	1454.432784573947	34
2	4617	1455.103236102398	35
2	4618	1455.874796248441	34
2	4622	1456.684625948904	35
2	4623	1457.28243710923	34
2	4627	1457.589161764783	35
2	4628	1458.976008451572	34
2	4631	1460.19506377264	33
2	4634	1462.16247216615	32
2	4637	1464.104143169179	31
2	4641	1464.769955478981	32
2	4642	1465.799700084544	31
2	4646	1466.263751249282	32
2	4648	1466.387124732341	33
2	4649	1467.664984330564	32
2	4653	1468.28478605962	33
2	4654	1469.086498258106	32
2	4657	1470.697224381037	31
2	4661	1471.857511541298	32
2	4662	1472.66518511235	31
2	4666	1472.832492093464	32
2	4668	1473.556970205132	33
2	4670	1473.683589960109	34
2	4672	1473.821923949128	35
2	4674	1473.906411684454	36
2	4675	1474.167677635171	35
2	4679	1474.315263470514	36
2	4681	1474.390373194801	37
2	4683	1475.045211405229	38
2	4684	1475.551746051416	37
2	4687	1476.806748511113	36
2	4691	1476.995697029716	37
2	4693	1477.062287728405	38
2	4694	1478.619823404617	37
2	4697	1480.105203758768	36
2	4701	1480.259600719288	37
2	4703	1480.497199102158	38
2	4705	1481.539892162134	39
2	4706	1481.568722681544	38
2	4710	1482.425797531899	39
2	4711	1483.076071137591	38
2	4715	1483.412308082693	39
2	4716	1484.884838211192	38
2	4720	1484.937163953965	39
2	4722	1485.048633465112	40
2	4723	1486.107716540462	39
2	4729	1487.696041782399	40
2	4730	1487.903229581221	39
2	4734	1488.998959951473	40
2	4735	1489.598899196303	39
2	4738	1490.970295010908	38
2	4742	1491.358885017448	39
2	4744	1491.486857840321	40
2	4745	1492.270193119189	39
2	4749	1493.7502948168	40
2	4750	1494.180835589422	39
2	4754	1495.065115446371	40
2	4755	1495.65258751235	39
2	4759	1495.950378618244	40
2	4760	1497.272865129663	39
2	4764	1498.600599054494	40
2	4765	1499.213852907187	39
2	4769	1500.085838989977	40
2	4770	1500.425795167713	39
2	4774	1500.686918754321	40
2	4777	1502.060695099487	39
2	4781	1502.229197670198	40
2	4783	1502.940272566626	41
2	4784	1503.516010877333	40
2	4787	1505.501686550334	39
2	4791	1506.765347580158	40
2	4793	1506.779525998953	41
2	4794	1507.135873880267	40
2	4798	1507.441176187084	41
2	4799	1508.528660702549	40
2	4802	1510.421189826198	39
2	4805	1512.033354053304	38
2	4810	1513.652110851959	37
2	4814	1513.862112120618	38
2	4816	1515.131331727075	39
2	4817	1515.599385368482	38
2	4821	1516.71529002917	39
2	4823	1516.780821520661	40
2	4824	1517.232996091463	39
2	4828	1517.584739964321	40
2	4830	1517.88613784355	41
2	4831	1518.642741844274	40
2	4835	1519.15762580648	41
2	4836	1519.918841945037	40
2	4839	1521.345286901697	39
2	4842	1522.650146363146	38
2	4846	1523.275879111993	39
2	4847	1524.378135797783	38
2	4851	1525.081635766969	39
2	4853	1525.109061510692	40
2	4854	1526.025469884119	39
2	4857	1527.899082646734	38
2	4861	1528.310585867677	39
2	4862	1529.648634752474	38
2	4866	1530.357217614497	39
2	4867	1531.352182469174	38
2	4871	1532.269677094578	39
2	4872	1533.230428269908	38
2	4876	1533.244613484089	39
2	4877	1534.902272137284	38
2	4880	1536.715989279218	37
2	4884	1537.210060121702	38
2	4885	1538.181208947703	37
2	4889	1538.546772709763	38
2	4890	1539.822958884418	37
2	4894	1539.882782038104	38
2	4897	1541.351822464012	37
2	4901	1543.196447050176	38
2	4903	1543.217417503984	39
2	4904	1543.313485614241	38
2	4907	1545.213836908185	37
2	4911	1545.818375342334	38
2	4912	1546.768030145981	37
2	4916	1547.258609434305	38
2	4918	1547.657761962748	39
2	4920	1547.939585478487	40
2	4921	1548.464927959473	39
2	4924	1550.285559603789	38
2	4928	1551.612207527324	39
2	4929	1552.15636416714	38
2	4933	1553.472103448668	39
2	4934	1554.030016173639	38
2	4937	1555.479788184383	37
2	4941	1555.638848246389	38
2	4943	1556.275752457434	39
2	4944	1557.28105805836	38
2	4948	1558.818979082821	39
2	4949	1559.146417557293	38
2	4953	1560.288172645439	39
2	4954	1560.553165441783	38
2	4958	1562.274938376471	39
2	4959	1562.353771538133	38
2	4963	1562.912954411809	39
2	4965	1563.561310710525	40
2	4966	1563.98739638369	39
2	4969	1565.823150099101	38
2	4973	1566.366535099963	39
2	4974	1567.171262821028	38
2	4977	1568.601193660902	37
2	4981	1569.781760948946	38
2	4983	1570.356264145637	39
2	4984	1570.512484970534	38
2	4988	1571.578786439566	39
2	4989	1571.760449187489	38
2	4993	1573.34230670797	39
2	4994	1573.667679375069	38
2	4998	1574.165819636669	39
2	4999	1575.565674551422	38
2	5003	1576.371102073817	39
2	5004	1577.122980390894	38
2	5008	1577.925253562525	39
2	5009	1578.994680844466	38
2	5013	1580.737636933698	39
2	5014	1580.840017285044	38
2	5017	1582.47307016443	37
2	5021	1582.488965559954	38
2	5023	1582.547949982037	39
2	5024	1583.87207184698	38
2	5027	1585.839105943996	37
2	5030	1587.718288170021	36
2	5033	1588.951007284258	35
2	5036	1590.32105810776	34
2	5040	1591.653777006896	35
2	5042	1591.792991982763	36
2	5044	1591.844494417218	37
2	5047	1592.139530774798	36
2	5051	1593.232614018402	37
2	5052	1593.660389563102	36
2	5055	1594.979658768918	35
2	5059	1595.782128431449	36
2	5060	1596.548948160778	35
2	5063	1597.856926253657	34
2	5067	1597.880898844238	35
2	5069	1598.840958726291	36
2	5070	1599.082901601712	35
2	5073	1600.636080945874	34
2	5077	1602.147679003779	35
2	5078	1602.224893460827	34
2	5082	1602.707962775538	35
2	5083	1604.011936525473	34
2	5087	1604.649404719395	35
2	5088	1605.447353210518	34
2	5092	1607.295760579937	35
2	5093	1607.333779194238	34
2	5097	1607.930139255191	35
2	5098	1608.689368253233	34
2	5102	1609.033772196477	35
2	5105	1610.109103167275	34
2	5108	1611.595391485686	33
2	5112	1611.815670571569	34
2	5114	1612.912731086306	35
2	5115	1613.049701683255	34
2	5118	1614.354209432224	33
2	5122	1615.837480053444	34
2	5123	1616.132568146134	33
2	5127	1616.324837582863	34
2	5128	1617.88190477475	33
2	5132	1618.80948813861	34
2	5134	1619.700135834755	35
2	5135	1619.851510706948	34
2	5143	1620.866348004452	35
2	5144	1621.512866491111	34
2	5148	1621.617939271994	35
2	5149	1623.210258008013	34
2	5153	1623.935982733093	35
2	5156	1624.440114185991	34
2	5160	1625.645904267446	35
2	5161	1626.100285708005	34
2	5165	1626.771756208055	35
2	5166	1627.784674455444	34
2	5170	1628.39062915344	35
2	5171	1629.383946323427	34
2	5175	1630.787164608866	35
2	5176	1630.991038328628	34
2	5180	1631.592270246571	35
2	5181	1632.815759397889	34
2	5185	1633.202862603378	35
2	5188	1634.712653223271	34
2	5191	1636.297961196708	33
2	5195	1636.529718989045	34
2	5196	1638.022500996883	33
2	5200	1638.963233218936	34
2	5202	1639.212253892338	35
2	5203	1639.662328761849	34
2	5207	1640.838189996984	35
2	5208	1641.141219486702	34
2	5212	1641.755149762248	35
2	5214	1642.177674883821	36
2	5215	1642.840679383684	35
2	5219	1642.959570267052	36
2	5221	1643.671669253999	37
2	5222	1644.381770563532	36
2	5226	1645.130533493377	37
2	5227	1646.30895622525	36
2	5230	1647.738979320634	35
2	5234	1649.134671966807	36
2	5235	1649.252379155192	35
2	5239	1650.131359412218	36
2	5240	1650.970166981067	35
2	5243	1652.401971023935	34
2	5247	1653.244006859651	35
2	5249	1653.59516382977	36
2	5250	1653.755684801038	35
2	5254	1653.836331491089	36
2	5256	1654.59771737489	37
2	5257	1654.981364396061	36
2	5261	1656.617226816366	37
2	5262	1656.849529507603	36
2	5266	1657.121105739405	37
2	5267	1658.628734000433	36
2	5270	1660.111534835431	35
2	5273	1661.766366604748	34
2	5276	1663.241035343366	33
2	5280	1663.639476542879	34
2	5282	1664.132663365144	35
2	5283	1664.559856800953	34
2	5286	1666.225435656527	33
2	5289	1667.738488602297	32
2	5293	1668.629388029325	33
2	5294	1669.05830900784	32
2	5297	1670.694537825914	31
2	5301	1670.801188866873	32
2	5302	1672.061312846126	31
2	5306	1673.773269402688	32
2	5307	1673.953804698432	31
2	5311	1674.215460091349	32
2	5313	1674.255391858601	33
2	5314	1675.307232016543	32
2	5318	1675.805567460733	33
2	5319	1676.876490448447	32
2	5325	1677.865103903086	33
2	5326	1678.405264215389	32
2	5329	1680.042443128707	31
2	5333	1680.509446778355	32
2	5334	1681.304359030197	31
2	5337	1682.553388922135	30
2	5340	1684.11578206032	29
2	5343	1685.596830535712	28
2	5346	1687.453194645638	27
2	5350	1687.557938609045	28
2	5352	1688.204800722676	29
2	5354	1689.019273962038	30
2	5355	1689.042133906143	29
2	5359	1689.497993515758	30
2	5362	1690.299657128597	29
2	5366	1691.708624504955	30
2	5367	1692.128331407192	29
2	5371	1692.688603407811	30
2	5372	1694.108763678404	29
2	5376	1694.654916589569	30
2	5377	1695.810856906729	29
2	5381	1695.863082217579	30
2	5382	1697.771321853282	29
2	5386	1698.308237213404	30
2	5387	1699.111191259729	29
2	5390	1700.797677292893	28
2	5395	1702.674304600092	27
2	5399	1702.741185932953	28
2	5401	1703.248612654873	29
2	5405	1704.191435354606	30
2	5406	1704.652574054184	29
2	5409	1705.991148951123	28
2	5413	1706.40992774269	29
2	5414	1707.192430861885	28
2	5418	1707.466393636752	29
2	5420	1708.966540607945	30
2	5421	1709.094608421656	29
2	5425	1709.495084434582	30
2	5427	1710.249650533211	31
2	5428	1710.748570571872	30
2	5431	1712.433785910005	29
2	5434	1714.300245869192	28
2	5438	1714.761348770584	29
2	5439	1715.834533454696	28
2	5443	1715.835366713473	29
2	5445	1716.737647542566	30
2	5446	1717.315533932889	29
2	5452	1718.242785238191	30
2	5453	1719.114053847673	29
2	5457	1720.619669960198	30
2	5458	1720.724773892793	29
2	5462	1720.893942452773	30
2	5464	1722.219076402555	31
2	5465	1722.518146885964	30
2	5469	1722.896885812222	31
2	5470	1724.348657276514	30
2	5474	1725.153763170233	31
2	5475	1725.862883784468	30
2	5479	1726.517818594709	31
2	5480	1727.579977744105	30
2	5484	1728.360681902097	31
2	5485	1728.978666786509	30
2	5489	1730.488954132108	31
2	5490	1730.708435198138	30
2	5494	1731.715526812062	31
2	5495	1732.614861488374	30
2	5499	1733.332799179283	31
2	5500	1734.037981114382	30
2	5504	1734.935454065453	31
2	5505	1735.933529998208	30
2	5509	1735.999987692577	31
2	5510	1737.314574924702	30
2	5514	1738.622858367829	31
2	5515	1739.153279146584	30
2	5519	1739.32039865906	31
2	5520	1740.610530564966	30
2	5524	1741.421333643314	31
2	5525	1742.475745725477	30
2	5529	1743.007399500364	31
2	5531	1743.721907108948	32
2	5532	1743.921120555358	31
2	5536	1745.698561972918	32
2	5537	1745.713195065999	31
2	5541	1746.226976676299	32
2	5542	1747.009936122441	31
2	5546	1748.362175782789	32
2	5547	1748.580306708099	31
2	5550	1749.816082068564	30
2	5554	1749.845569578606	31
2	5556	1750.300697499792	32
2	5557	1751.436370918745	31
2	5560	1753.416539043965	30
2	5564	1753.750395732583	31
2	5565	1755.259745158287	30
2	5568	1756.622770789856	29
2	5573	1758.507857764544	28
2	5577	1758.547237041853	29
2	5578	1759.957393780196	28
2	5582	1761.538046083368	29
2	5583	1761.64272510636	28
2	5587	1762.835760387495	29
2	5588	1763.516574694806	28
2	5592	1764.543864803388	29
2	5594	1764.670053881374	30
2	5595	1764.898186108873	29
2	5598	1766.614551855468	28
2	5602	1767.571863450843	29
2	5606	1768.226249907888	30
2	5607	1768.24297916408	29
2	5611	1769.281625947618	30
2	5612	1769.892054254034	29
2	5617	1771.86685808211	28
2	5621	1772.570150031632	29
2	5622	1773.383631373787	28
2	5626	1773.600320488102	29
2	5628	1773.892663994278	30
2	5629	1774.849657503547	29
2	5633	1775.509294685633	30
2	5634	1776.598444337243	29
2	5638	1776.777541963318	30
2	5639	1777.822075261207	29
2	5642	1779.39191536087	28
2	5646	1780.531612407572	29
2	5647	1781.37924559045	28
2	5651	1781.782329663903	29
2	5654	1782.685982108893	28
2	5657	1784.340057273613	27
2	5661	1784.575042610347	28
2	5662	1785.846426951544	27
2	5665	1787.059547517107	26
2	5669	1787.467922428189	27
2	5670	1788.887580554777	26
2	5674	1789.233272522037	27
2	5675	1790.251912865632	26
2	5679	1790.291850062925	27
2	5680	1792.224879214571	26
2	5684	1792.325415440126	27
2	5685	1793.489275690385	26
2	5689	1793.783139275767	27
2	5692	1794.970258703672	26
2	5696	1795.249472665249	27
2	5698	1795.299377832793	28
2	5699	1796.728460947268	27
2	5703	1797.174643101314	28
2	5705	1797.8552905483	29
2	5706	1798.04281211219	28
2	5710	1798.059940978262	29
2	5711	1800.03234669476	28
2	5715	1800.438697892191	29
2	5717	1800.515590952338	30
2	5718	1801.317210192449	29
2	5722	1802.142443832751	30
2	5723	1802.899409602612	29
2	5726	1804.193948184356	28
2	5729	1805.555753725052	27
2	5733	1806.041472823349	28
2	5734	1807.32115831285	27
2	5738	1807.942028048417	28
2	5739	1808.614136981435	27
2	5743	1808.919814877747	28
2	5744	1810.302193498082	27
2	5748	1811.345951082075	28
2	5750	1811.642023750805	29
2	5751	1811.942569503963	28
2	5754	1813.188620259084	27
2	5758	1813.529400692497	28
2	5759	1814.448862622522	27
2	5762	1816.012746583514	26
2	5765	1817.962975381903	25
2	5768	1819.476892834186	24
2	5772	1820.347850314925	25
2	5773	1820.820834453433	24
2	5777	1821.281563681845	25
2	5779	1822.223732616452	26
2	5780	1822.777307891502	25
2	5784	1822.848216774194	26
2	5785	1824.050721526734	25
2	5789	1824.788817572695	26
2	5790	1825.539735124848	25
2	5794	1826.517898598321	26
2	5795	1827.20232382848	25
2	5799	1827.779029624782	26
2	5801	1828.076871755341	27
2	5802	1828.809524063236	26
2	5805	1830.525307291589	25
2	5808	1832.146072845563	24
2	5811	1833.883108810551	23
2	5814	1835.678102222301	22
2	5817	1837.33120284307	21
2	5821	1838.17612143415	22
2	5822	1838.579310064234	21
2	5826	1838.750557748732	22
2	5828	1838.890776541603	23
2	5830	1839.119779284246	24
2	5832	1839.376686336482	25
2	5833	1840.011763689324	24
2	5837	1840.488824248538	25
2	5838	1841.846209361434	24
2	5842	1842.632018306928	25
2	5843	1843.24778745494	24
2	5846	1845.079089860461	23
2	5850	1846.232239037345	24
2	5852	1846.418436366764	25
2	5853	1846.495788705006	24
2	5857	1847.567447332215	25
2	5858	1848.034385270841	24
2	5862	1849.180615845612	25
2	5863	1849.351008569479	24
2	5868	1850.852505198523	23
2	5872	1851.078780769096	24
2	5874	1851.402341344798	25
2	5877	1852.101406557329	24
2	5881	1853.313800063328	25
2	5882	1853.939359234862	24
2	5885	1855.228700394213	23
2	5888	1856.52043942216	22
2	5891	1857.901794554881	21
2	5895	1858.492050967789	22
2	5897	1858.562124658033	23
2	5899	1859.171360515657	24
2	5900	1859.238954502746	23
2	5904	1859.621711177037	24
2	5906	1860.020862627855	25
2	5908	1860.795366501094	26
2	5909	1860.829438760161	25
2	5912	1862.11505946967	24
2	5916	1863.180215262216	25
2	5917	1863.67898811999	24
2	5920	1865.510650545016	23
2	5924	1866.351588490213	24
2	5925	1866.93843696139	23
2	5929	1867.211831303542	24
2	5930	1868.466733247258	23
2	5933	1869.766843170516	22
2	5936	1871.194455321535	21
2	5940	1871.228854009894	22
2	5942	1872.191100803647	23
2	5943	1872.515011304833	22
2	5946	1873.772986417666	21
2	5949	1875.004059934273	20
2	5952	1876.249664282828	19
2	5955	1877.481288160227	18
2	5960	1879.366916314542	17
2	5963	1881.331680876046	16
2	5967	1881.450177372039	17
2	5969	1882.702008697338	18
2	5970	1883.273676499381	17
2	5974	1883.493609625194	18
2	5975	1884.674141118705	17
2	5978	1886.210505278997	16
2	5981	1887.562163757749	15
2	5984	1888.934411742754	14
2	5988	1889.272264965875	15
2	5990	1889.367473211075	16
2	5992	1889.772910094419	17
2	5993	1890.690957799211	16
2	5997	1890.771685003736	17
2	5999	1890.8563453787	18
2	6000	1892.254786227301	17
2	6004	1892.616685391842	18
2	6006	1893.047759016339	19
2	6007	1894.156703700155	18
2	6010	1895.935599922046	17
2	6014	1896.613515123645	18
2	6016	1896.623469371997	19
2	6017	1897.463793234371	18
2	6021	1897.857518087773	19
2	6023	1898.13659976623	20
2	6025	1898.241267822068	21
2	6026	1898.983167493187	20
2	6030	1899.282251872044	21
2	6032	1900.016225705943	22
2	6033	1900.879220961623	21
2	6036	1902.281792510517	20
2	6040	1902.556385920191	21
2	6042	1903.780102399306	22
2	6043	1903.993226312131	21
2	6047	1904.260130897902	22
2	6048	1905.230357151695	21
2	6051	1907.165957232781	20
2	6055	1907.246899357427	21
2	6057	1907.515427003694	22
2	6059	1908.750115137755	23
2	6060	1908.90085523057	22
2	6064	1909.801174606067	23
2	6066	1910.292481690783	24
2	6067	1910.746862722032	23
2	6070	1912.345664318308	22
2	6073	1913.6427153759	21
2	6076	1915.362541537948	20
2	6080	1915.489014532842	21
2	6082	1916.50350403706	22
2	6084	1916.977266300799	23
2	6085	1917.263208250172	22
2	6089	1917.490339000078	23
2	6091	1917.518938927566	24
2	6093	1917.960532750484	25
2	6095	1918.101218068582	26
2	6097	1918.19803155055	27
2	6098	1919.21452398806	26
2	6101	1921.212666617736	25
2	6105	1921.322988131353	26
2	6106	1923.074489980407	25
2	6110	1924.639218931903	26
2	6111	1924.690723822482	25
2	6115	1924.934790234176	26
2	6116	1925.925664136216	25
2	6120	1927.210636582544	26
2	6121	1927.756644135557	25
2	6124	1929.659424847022	24
2	6128	1930.301147121429	25
2	6130	1930.672742336486	26
2	6131	1931.251662213944	25
2	6135	1931.414156950909	26
2	6136	1932.635361655645	25
2	6140	1933.559367795776	26
2	6141	1934.202552563541	25
2	6145	1935.154689973798	26
2	6146	1935.84792996499	25
2	6150	1936.079905066804	26
2	6152	1936.092890199432	27
2	6154	1936.564389588285	28
2	6155	1937.381120048866	27
2	6159	1937.42219664685	28
2	6160	1938.652343761579	27
2	6164	1939.743396520249	28
2	6165	1939.963102040098	27
2	6169	1940.958426800104	28
2	6171	1941.206600176338	29
2	6172	1941.450845544443	28
2	6176	1942.85344415181	29
2	6177	1943.435444264889	28
2	6181	1944.217336598624	29
2	6182	1944.841845785298	28
2	6186	1946.244134950474	29
2	6188	1946.617742946294	30
2	6189	1946.656179015555	29
2	6192	1948.186759506383	28
2	6196	1948.770232838874	29
2	6198	1948.786868775681	30
2	6200	1949.156069226721	31
2	6201	1949.949716635079	30
2	6205	1951.10821172288	31
2	6206	1951.184068203189	30
2	6210	1951.481755169344	31
2	6212	1951.907790352452	32
2	6214	1951.966327010233	33
2	6215	1952.476877118305	32
2	6218	1953.797629475438	31
2	6221	1955.785707510666	30
2	6227	1956.182557871405	31
2	6228	1957.054456060038	30
2	6231	1958.342239965343	29
2	6235	1958.559085966079	30
2	6237	1959.162989575921	31
2	6239	1959.188416025101	32
2	6240	1959.682992553369	31
2	6244	1960.031680281232	32
2	6245	1960.939690510959	31
2	6248	1962.892559686334	30
2	6252	1963.050710888586	31
2	6254	1964.095308069614	32
2	6255	1964.841091928289	31
2	6259	1965.434611623576	32
2	6260	1966.217846022949	31
2	6264	1966.227140093358	32
2	6267	1968.173264709518	31
2	6270	1969.516219652102	30
2	6274	1969.899447476671	31
2	6275	1970.88444467339	30
2	6279	1972.319397167815	31
2	6280	1972.449134551578	30
2	6284	1973.300723550087	31
2	6285	1973.771767503799	30
2	6288	1975.298730385707	29
2	6292	1975.857691434389	30
2	6294	1976.466456794443	31
2	6296	1976.965141869903	32
2	6297	1976.99512331731	31
2	6301	1978.207858278883	32
2	6302	1978.478788442755	31
2	6306	1979.122338104928	32
2	6308	1979.482063955034	33
2	6309	1979.973517614448	32
2	6313	1981.118832832653	33
2	6316	1981.801241372743	32
2	6320	1983.039192197708	33
2	6321	1983.544196657495	32
2	6325	1983.730922217358	33
2	6326	1985.045348866129	32
2	6330	1985.655269168334	33
2	6331	1986.731247067855	32
2	6334	1988.400271903754	31
2	6337	1989.739328534745	30
2	6340	1991.137392288663	29
2	6343	1992.436065487594	28
2	6346	1993.768227658824	27
2	6350	1993.901373590641	28
2	6352	1993.998099846305	29
2	6354	1994.168079875113	30
2	6355	1995.34840916957	29
2	6359	1995.724300276576	30
2	6361	1996.469575994825	31
2	6363	1996.792144506427	32
2	6364	1997.077031818621	31
2	6368	1997.134546589307	32
2	6369	1998.871179932386	31
2	6373	2000.296898561618	32
2	6374	2000.643534400158	31
2	6378	2000.988651457911	32
2	6380	2002.220637936098	33
2	6381	2002.315139205225	32
2	6385	2002.318530035079	33
2	6386	2003.859111239046	32
2	6390	2003.868009910001	33
2	6391	2005.418462972	32
2	6395	2005.496221075626	33
2	6396	2007.073589475669	32
2	6400	2007.995137861505	33
2	6401	2008.354001725867	32
2	6405	2008.484700509918	33
2	6406	2009.657444963447	32
2	6410	2009.820915672027	33
2	6412	2010.036181875838	34
2	6413	2011.048349462665	33
2	6416	2012.926879530615	32
2	6420	2013.162845620744	33
2	6421	2014.377603731519	32
2	6425	2014.655943812702	33
2	6426	2015.77810020133	32
2	6429	2017.595613898738	31
2	6433	2018.367731948933	32
2	6434	2019.239445781736	31
2	6438	2020.363272009357	32
2	6439	2021.078216658933	31
2	6442	2022.771917579165	30
2	6446	2023.669251383586	31
2	6447	2024.704712306178	30
2	6451	2025.145452491395	31
2	6455	2026.27382399976	32
2	6456	2026.461201828002	31
2	6459	2028.088296152494	30
2	6463	2028.304702211626	31
2	6465	2028.729736294446	32
2	6467	2028.887259825479	33
2	6468	2029.450364594936	32
2	6471	2031.318935181789	31
2	6474	2032.974843300909	30
2	6477	2034.840457667627	29
2	6480	2036.289911578253	28
2	6484	2037.551008526305	29
2	6485	2038.201207452297	28
2	6488	2039.452648000262	27
2	6491	2041.004019074544	26
2	6496	2042.799970526091	25
2	6500	2042.868078430616	26
2	6503	2044.073141100473	25
2	6506	2045.904154683679	24
2	6509	2047.385943904362	23
2	6513	2047.54695917706	24
2	6514	2048.797284574836	23
2	6518	2049.184026816689	24
2	6520	2049.896487321547	25
2	6521	2050.686233362957	24
2	6525	2051.462221800125	25
2	6527	2051.625719509529	26
2	6529	2051.738310473826	27
2	6531	2051.758336666341	28
2	6532	2052.083239231846	27
2	6536	2052.22822746475	28
2	6538	2052.603227873283	29
2	6540	2053.376161467692	30
2	6543	2053.759948622464	29
2	6547	2054.10699829133	30
2	6549	2054.738088337635	31
2	6550	2055.066657978697	30
2	6553	2056.320293032965	29
2	6557	2057.528285701734	30
2	6559	2057.699982707947	31
2	6561	2057.759542143683	32
2	6562	2057.863902545376	31
2	6566	2059.331725010004	32
2	6568	2059.410161983166	33
2	6569	2059.65404997713	32
2	6573	2060.151741305859	33
2	6575	2060.550284429886	34
2	6576	2061.040135891392	33
2	6580	2061.231132018429	34
2	6581	2062.5970836839	33
2	6585	2063.189873405449	34
2	6586	2064.012281916879	33
2	6590	2064.857339318896	34
2	6591	2065.318824089534	33
2	6594	2066.528341603495	32
2	6597	2068.049575571373	31
2	6601	2068.70272278295	32
2	6603	2068.897770926083	33
2	6604	2069.498612983927	32
2	6608	2069.910132027148	33
2	6610	2070.419007117496	34
2	6612	2070.578377614482	35
2	6613	2071.088591477677	34
2	6616	2072.514350723319	33
2	6620	2073.34341745615	34
2	6621	2073.813733967796	33
2	6625	2074.53285003073	34
2	6626	2075.491275193572	33
2	6630	2076.399463360476	34
2	6631	2077.067962122366	33
2	6635	2078.289662721229	34
2	6636	2078.561307765015	33
2	6640	2078.79642932065	34
2	6641	2080.469496446506	33
2	6644	2082.226235150018	32
2	6648	2082.383525446039	33
2	6650	2082.819956056724	34
2	6651	2084.034778123752	33
2	6655	2085.51880124368	34
2	6656	2085.996955166415	33
2	6659	2087.480910680846	32
2	6663	2088.136309652142	33
2	6664	2089.16130571089	32
2	6668	2089.450489449237	33
2	6669	2090.677489195236	32
2	6672	2092.013961393231	31
2	6676	2092.552170004494	32
2	6678	2092.61014522964	33
2	6679	2093.782501708561	32
2	6684	2095.668135030971	31
2	6688	2095.894549895961	32
2	6690	2096.229059367518	33
2	6691	2097.385118340359	32
2	6695	2098.074066525514	33
2	6696	2098.665616614402	32
2	6700	2099.345144425329	33
2	6702	2099.7651085224	34
2	6703	2100.435553295568	33
2	6707	2100.958204535212	34
2	6708	2101.951025027253	33
2	6711	2103.190557912581	32
2	6715	2103.473985873334	33
2	6717	2103.933180759609	34
2	6718	2104.970622246184	33
2	6721	2106.723706958846	32
2	6724	2107.996946196289	31
2	6728	2108.931872867357	32
2	6732	2109.179084838823	33
2	6733	2109.296904357926	32
2	6736	2110.522811652006	31
2	6740	2111.790097113248	32
2	6741	2111.952215010704	31
2	6745	2112.048132400355	32
2	6747	2112.781068709067	33
2	6748	2113.493856794977	32
2	6752	2114.094468049485	33
2	6753	2114.764260188149	32
2	6757	2115.54979218924	33
2	6759	2115.67518141472	34
2	6761	2116.194453776776	35
2	6762	2116.268576861204	34
2	6766	2117.18118181071	35
2	6767	2118.253075133668	34
2	6771	2118.666626428083	35
2	6773	2119.330502497525	36
2	6774	2119.574453544276	35
2	6778	2120.971148487895	36
2	6779	2121.477639787676	35
2	6783	2122.012568651722	36
2	6785	2122.519377065137	37
2	6787	2123.054586257043	38
2	6789	2123.133986805878	39
2	6790	2123.332636263812	38
2	6794	2123.381548965024	39
2	6795	2124.719833548026	38
2	6799	2124.895665995515	39
2	6801	2126.603032946155	40
2	6802	2126.670807426641	39
2	6806	2127.042323736522	40
2	6808	2127.261687173939	41
2	6809	2128.629303561555	40
2	6812	2130.558189014377	39
2	6816	2131.780401878391	40
2	6818	2132.020257057385	41
2	6819	2132.317288397284	40
2	6823	2133.746696207972	41
2	6825	2134.278038477318	42
2	6826	2134.288941108281	41
2	6829	2135.779781871693	40
2	6833	2136.506114030766	41
2	6834	2137.391259936647	40
2	6838	2137.661482605584	41
2	6839	2138.82536021083	40
2	6843	2139.858666518712	41
2	6845	2140.435221933643	42
2	6846	2140.695030308546	41
2	6849	2142.515768426315	40
2	6855	2143.70802629512	41
2	6857	2143.87860961855	42
2	6858	2144.158571963043	41
2	6862	2144.685083935529	42
2	6864	2145.280247773753	43
2	6865	2145.979050062441	42
2	6869	2146.811826179043	43
2	6870	2147.493112193078	42
2	6874	2147.914844527982	43
2	6875	2149.05214680399	42
2	6879	2149.253174420917	43
2	6880	2151.050561637089	42
2	6884	2151.50638028721	43
2	6887	2152.753482555628	42
2	6890	2154.281019250147	41
2	6894	2155.524232572403	42
2	6896	2155.65858335383	43
2	6897	2155.715082832828	42
2	6901	2156.090511588562	43
2	6902	2157.047954504594	42
2	6906	2158.21396947131	43
2	6907	2158.301876884542	42
2	6911	2158.658672859854	43
2	6912	2160.007563921839	42
2	6916	2160.029870152728	43
2	6918	2160.446124860225	44
2	6919	2161.837015208632	43
2	6923	2163.448715352042	44
2	6924	2163.456212064654	43
2	6928	2164.268864724599	44
2	6929	2164.756942204416	43
2	6932	2166.239167787537	42
2	6936	2166.853937685984	43
2	6938	2166.925186055768	44
2	6939	2167.649960000843	43
2	6942	2169.376369240351	42
2	6945	2170.843002659112	41
2	6949	2170.973019497419	42
2	6951	2172.04031550374	43
2	6952	2172.570153060399	42
2	6955	2174.458514667705	41
2	6959	2174.461216132097	42
2	6960	2175.704152997054	41
2	6964	2176.498514934673	42
2	6965	2177.432820127189	41
2	6968	2179.202110352583	40
2	6973	2181.096375558182	39
2	6977	2181.57673064289	40
2	6979	2182.019124169474	41
2	6981	2182.057111005416	42
2	6983	2182.479717210019	43
2	6984	2182.59101788032	42
2	6988	2183.610895856797	43
2	6989	2183.811112132325	42
2	6993	2184.492768800786	43
2	6994	2185.288728972926	42
2	6998	2186.184597019508	43
2	6999	2186.686293751962	42
2	7003	2186.87246605284	43
2	7004	2188.297523048363	42
2	7008	2188.362257087707	43
2	7010	2188.663552246765	44
2	7011	2189.566596367798	43
2	7015	2190.549594455016	44
2	7016	2190.948787514708	43
2	7020	2191.409068400442	44
2	7021	2192.348928817018	43
2	7025	2193.319525610208	44
2	7026	2194.275397651671	43
2	7029	2195.552538960455	42
2	7033	2195.710947071269	43
2	7035	2196.082165942574	44
2	7036	2197.035145592717	43
2	7040	2198.461175686127	44
2	7041	2198.825807269876	43
2	7045	2199.748839459969	44
2	7046	2200.567893136506	43
2	7050	2201.81859376736	44
2	7051	2202.530376111184	43
2	7055	2202.618438557582	44
2	7056	2204.274633385082	43
2	7060	2204.915267517609	44
2	7062	2205.113012925446	45
2	7063	2205.725842415196	44
2	7069	2206.934889437288	45
2	7070	2207.382698450451	44
2	7074	2207.942308879319	45
2	7076	2208.496242111121	46
2	7077	2209.108564218347	45
2	7081	2209.646281938768	46
2	7082	2211.088585604941	45
2	7085	2212.49552578072	44
2	7089	2213.186690237486	45
2	7091	2213.686434130733	46
2	7092	2214.1195594542	45
2	7096	2214.477322804947	46
2	7098	2214.86897549556	47
2	7099	2216.108487823446	46
2	7102	2218.09834899309	45
2	7106	2218.614120044914	46
2	7107	2219.805462035378	45
2	7110	2221.171686291908	44
2	7114	2221.596802734973	45
2	7116	2221.995376626638	46
2	7117	2222.715496574556	45
2	7121	2223.094934574257	46
2	7123	2223.136659239808	47
2	7124	2224.251284309504	46
2	7127	2225.767988747572	45
2	7131	2226.099991907036	46
2	7132	2227.603030981337	45
2	7135	2229.370928374333	44
2	7139	2230.248791156083	45
2	7140	2230.729813942527	44
2	7144	2230.995408500072	45
2	7145	2232.006041010124	44
2	7148	2233.820284698558	43
2	7152	2233.846970497591	44
2	7153	2235.458057382357	43
2	7159	2236.710148028467	44
2	7160	2237.327456429069	43
2	7164	2237.369398996808	44
2	7165	2239.053695069839	43
2	7168	2240.740489233126	42
2	7171	2242.217812664089	41
2	7175	2242.69181820813	42
2	7177	2243.274255533187	43
2	7178	2243.804983586473	42
2	7181	2245.527274314714	41
2	7185	2246.592454801094	42
2	7186	2247.207255779234	41
2	7190	2247.479628619211	42
2	7191	2248.430127453272	41
2	7195	2249.09357646729	42
2	7196	2249.983096053106	41
2	7200	2249.994169947012	42
2	7201	2251.757132566375	41
2	7205	2251.798155885612	42
2	7206	2253.291690803346	41
2	7210	2254.105350926922	42
2	7212	2254.228052655292	43
2	7215	2254.994528193799	42
2	7219	2256.182677443257	43
2	7222	2256.949886875813	42
2	7227	2258.879099760977	41
2	7230	2260.204644461004	40
2	7234	2260.480232460492	41
2	7236	2260.768216366191	42
2	7237	2261.691902796766	41
2	7241	2261.843207741225	42
2	7243	2262.252166173912	43
2	7245	2263.177704081901	44
2	7246	2263.395276377751	43
2	7250	2264.897175040732	44
2	7251	2265.372121139085	43
2	7255	2265.762409010438	44
2	7256	2266.979325926891	43
2	7260	2267.304490890065	44
2	7262	2268.83073713431	45
2	7263	2268.908657053328	44
2	7267	2270.030247998428	45
2	7268	2270.610904618568	44
2	7271	2272.536394660949	43
2	7274	2274.301150607533	42
2	7278	2274.972624076925	43
2	7279	2275.754889942362	42
2	7283	2275.871677022842	43
2	7285	2276.297670321822	44
2	7287	2276.564482891135	45
2	7288	2277.227733547828	44
2	7292	2278.254977226053	45
2	7294	2278.34507769906	46
2	7295	2279.034199949755	45
2	7299	2279.887805974159	46
2	7300	2280.519934558711	45
2	7304	2281.300027576842	46
2	7306	2281.738365435613	47
2	7307	2282.384667032055	46
2	7313	2284.136721815362	47
2	7314	2284.17300917714	46
2	7317	2285.403853294282	45
2	7321	2286.444937710449	46
2	7322	2287.09137268181	45
2	7326	2287.79536867253	46
2	7327	2288.938324997602	45
2	7331	2289.229427679411	46
2	7332	2290.408139270013	45
2	7336	2291.334805943482	46
2	7338	2291.721350187983	47
2	7339	2292.079540462261	46
2	7342	2293.293188769584	45
2	7346	2293.403921024223	46
2	7348	2293.54849478023	47
2	7349	2294.733529413146	46
2	7353	2294.925442066873	47
2	7354	2296.645744814192	46
2	7358	2297.335954145476	47
2	7360	2298.28729865424	48
2	7361	2298.603903780905	47
2	7364	2299.928566855965	46
2	7368	2300.653269435163	47
2	7369	2301.436565475194	46
2	7372	2303.003395621134	45
2	7375	2304.35959236457	44
2	7379	2305.488926836051	45
2	7380	2305.903140345802	44
2	7384	2306.217437517172	45
2	7385	2307.72397826801	44
2	7388	2309.148740522963	43
2	7392	2309.168757562532	44
2	7393	2310.461921994415	43
2	7396	2311.723609966067	42
2	7400	2311.944080482825	43
2	7404	2312.227279904172	44
2	7405	2313.08952750883	43
2	7408	2314.7392562317	42
2	7412	2315.147631192091	43
2	7413	2316.140439037819	42
2	7417	2317.168688614815	43
2	7418	2317.902180784409	42
2	7422	2318.621913655518	43
2	7423	2319.568124351864	42
2	7426	2320.856210513813	41
2	7430	2321.063891728643	42
2	7431	2322.378559546573	41
2	7434	2324.144439772917	40
2	7438	2324.44862320795	41
2	7439	2325.48889437153	40
2	7443	2326.164453791618	41
2	7444	2326.816053174464	40
2	7448	2327.526357932263	41
2	7450	2328.252082870824	42
2	7451	2328.280997738084	41
2	7455	2328.710943936926	42
2	7458	2329.590574383391	41
2	7461	2330.904368249169	40
2	7464	2332.174337807699	39
2	7468	2333.476748196385	40
2	7469	2333.991280698619	39
2	7472	2335.283436112321	38
2	7476	2335.484217680249	39
2	7478	2335.810483164865	40
2	7479	2336.93590697202	39
2	7483	2337.583064654392	40
2	7485	2338.636567137254	41
2	7486	2338.876759750611	40
2	7490	2339.045263329197	41
2	7491	2340.434019030473	40
2	7495	2341.08094699068	41
2	7496	2341.635232024669	40
2	7500	2342.341037271674	41
2	7502	2342.677947335263	42
2	7503	2342.863942655019	41
2	7507	2343.452837912453	42
2	7508	2344.216030361905	41
2	7511	2345.613711209997	40
2	7515	2346.212834677326	41
2	7516	2346.881588699139	40
2	7519	2348.345036287449	39
2	7523	2350.266560450746	40
2	7524	2350.285184425145	39
2	7527	2351.720637881599	38
2	7531	2352.428441583711	39
2	7532	2353.642157582223	38
2	7536	2353.776455777511	39
2	7537	2355.462993963651	38
2	7540	2356.849476685777	37
2	7543	2358.352769138694	36
2	7547	2359.014749775469	37
2	7548	2359.841538444936	36
2	7552	2361.107387488152	37
2	7553	2361.150157556526	36
2	7557	2361.884385126489	37
2	7558	2362.447754960909	36
2	7561	2363.965124757245	35
2	7564	2365.374844981573	34
2	7568	2365.569319284755	35
2	7569	2366.88264289166	34
2	7572	2368.621596041724	33
2	7576	2369.807466275691	34
2	7577	2370.194188815758	33
2	7581	2370.499519523884	34
2	7583	2370.514296235827	35
2	7585	2370.567202734485	36
2	7586	2371.461696722761	35
2	7590	2371.693271917599	36
[...]
6	83594	26166.311453178507	405.85457519513
6	83606	26169.407722604071	331.61641025794
6	83631	26177.745649186319	904.57709542167
6	83641	26180.831884554384	94.096879742475
6	83663	26187.262972697226	93.895988421852
6	83666	26188.525646186603	717.43099932508
6	83676	26191.778314284777	1674.3684420724
6	83689	26196.556872373988	262.45139051432
6	83697	26200.367857687903	99.396423524548
6	83707	26203.04416514801	494.71400735434
6	83724	26208.348700964992	1063.8464965908
6	83756	26216.408338258025	346.63915981982
6	83763	26217.866363199037	101.57177891825
6	83771	26220.857762595435	185.62387131462
6	83817	26236.623604831454	918.39814892406
6	83843	26249.117999347653	192.10195452339
6	83858	26253.425168958474	275.33693616368
6	83884	26260.018273514305	664.66562631863
6	83976	26285.216663650218	195.7945118867
6	84022	26297.517500736173	1077.9975332795
6	84049	26305.827663419563	285.79593835123
6	84083	26313.439136397632	96.925784647354
6	84093	26316.694017121362	877.37161728762
6	84115	26322.997135899196	880.93041047778
6	84132	26328.443038801084	519.37214135879
6	84203	26349.028433419559	895.07397817639
6	84208	26350.304707837459	369.28810081079
6	84256	26362.876660300401	364.67352044983
6	84264	26366.376259123889	283.28799033654
6	84267	26367.621562114899	283.56917595724
6	84325	26386.45863827763	841.04269903094
6	84346	26393.74655200837	200.29020988068
6	84400	26406.814158906207	195.72919951398
6	84411	26408.729904426612	301.48654010201
6	84426	26414.037366261497	102.92865158643
6	84453	26423.161371124327	465.8337364192
6	84476	26430.937445597886	105.34253920755
6	84525	26444.131865419982	861.933817979
6	84542	26448.844462588219	788.50979736628
6	84574	26457.902480242751	102.70799907294
6	84577	26459.311095012888	391.00937520107
6	84582	26460.795978028118	702.0515361891
6	84593	26465.241961656488	298.37878234066
6	84599	26468.411080135382	107.19565106722
6	84631	26477.583094881824	1197.6637705879
6	84662	26485.575794270239	201.22485168323
6	84685	26492.938513875357	303.5427051266
6	84733	26509.398116882682	405.8466997497
6	84765	26519.74505835285	110.04065641908
6	84793	26525.709368420556	110.77185061701
6	84813	26531.964258429386	662.81740736724
6	84841	26542.045002793871	308.69165054432
6	84855	26549.023032169767	214.82263570694
6	84862	26550.7519458398	740.01255212047
6	84870	26554.316981264368	302.11082373101
6	84878	26558.048586899766	111.86346391185
6	84893	26563.009333821365	668.54829148893
6	84901	26566.124303226525	510.06205027138
6	84920	26573.797570533843	671.87906753923
6	84987	26593.845814620497	1126.9910748674
6	85010	26601.516134975271	314.59862504207
6	85019	26602.919648484492	315.87887173912
6	85037	26609.283188564496	109.71073559921
6	85062	26617.259443304108	106.11500766981
6	85108	26631.061341101097	692.00500877983
6	85139	26642.661948583254	111.90749550205
6	85144	26644.59385209603	616.49126328082
6	85170	26653.933449012951	322.31357734149
6	85219	26668.943843452797	216.0020460891
6	85252	26680.114769305454	210.1007563376
6	85255	26681.616070317456	319.73642840413
6	85319	26701.26719692161	319.83929344124
6	85322	26702.621899024562	517.6643562282
6	85325	26703.843348311611	511.34833491082
6	85341	26710.667883082271	417.75166560852
6	85368	26719.256030780613	620.86586766426
6	85390	26725.601620732225	202.1490232929
6	85399	26726.840364619322	319.1745021898
6	85449	26741.993579899126	934.33129595134
6	85457	26745.109306634569	614.84036158822
6	85465	26747.696328723596	701.40917674647
6	85498	26758.825527365113	702.7836779802
6	85508	26761.940421278382	306.02315903604
6	85546	26771.201999849247	691.24923667679
6	85549	26773.029496341178	86.583287288821
6	85561	26776.619794200153	189.65951791376
6	85593	26785.848128078483	412.0340853754
6	85610	26791.438797231183	500.48180307508
6	85637	26800.028380013421	82.100120168193
6	85658	26808.419184051618	83.092185164629
6	85673	26813.516339785955	409.4081908753
6	85714	26828.201396917342	413.53652163072
6	85724	26831.730561688146	414.92128008303
6	85754	26840.49367651397	507.26213836873
6	85799	26852.828343059286	777.29414225626
6	85814	26857.723676024167	1179.6068666187
6	85837	26866.956471700943	174.66767978255
6	85910	26888.969346949249	956.28904510035
6	85947	26903.325654946991	171.94971521051
6	85972	26907.760264887825	695.86050499924
6	85987	26913.044216423087	600.22801952065
6	86014	26920.889545493551	784.40318453855
6	86071	26935.558909284301	83.723008480267
6	86083	26939.247612327688	83.591982867623
6	86092	26943.859252138041	82.311677448807
6	86099	26945.575273779757	1813.9764730986
6	86102	26946.910707839369	474.95005414379
6	86110	26950.790174756735	472.65352342676
6	86142	26960.104556356161	83.032082905148
6	86147	26961.985287820525	84.639649402649
6	86152	26963.925790658384	779.17908934542
6	86171	26968.906849793135	176.78428748327
6	86179	26972.039822256914	257.68202928601
6	86191	26975.50139969436	83.565665042248
6	86194	26977.466465984448	258.32859411387
6	86217	26985.41630002146	883.10380708375
6	86232	26990.405599269433	583.21646530059
6	86240	26993.631859392835	261.78258829993
6	86289	27008.389356412342	353.44319472292
6	86312	27016.076765369227	88.099347771275
6	86327	27021.478890493115	572.88448729256
6	86332	27022.773232583118	93.128744458391
6	86340	27025.820080538255	1053.7021215539
6	86356	27032.523503631886	262.18432701536
6	86394	27045.798032218378	451.8339317521
6	86431	27056.443601918194	89.402523525706
6	86455	27062.221509467412	450.54944845235
6	86531	27086.056356441763	440.56404527191
6	86554	27091.526917130288	171.34297441014
6	86557	27092.993226251912	85.916281246722
6	86601	27105.480117601503	174.44693109447
6	86626	27113.217792519715	342.34319428688
6	86632	27116.414012403388	73.056718739895
6	86647	27121.28908713476	843.09162878407
6	86682	27131.650514624987	342.61623983617
6	86700	27138.142829565865	846.54141787376
6	86738	27147.282571211806	846.60733234773
6	86784	27159.789361855179	428.9482212203
6	86836	27176.416562556825	730.86392848932
6	86931	27203.336842165305	244.4397965151
6	86944	27208.459635261608	422.11622230143
6	86947	27210.396355327939	246.73358212543
6	86950	27211.888282638205	155.53346722303
6	86953	27213.493812859593	247.25313021539
6	86986	27224.202919228723	1022.8898398237
6	87000	27227.824174816137	82.223545627059
6	87008	27230.757285065365	80.99852496893
6	87077	27249.294486513895	161.74352733967
6	87080	27251.20279541814	843.05714907205
6	87088	27254.752129710813	515.9074843848
6	87093	27256.527800361414	1312.8198767375
6	87116	27264.977168044609	85.759623445921
6	87128	27267.810544596028	341.1564227384
6	87138	27271.03976079819	251.25736068761
6	87199	27292.216602547627	344.8456277427
6	87234	27303.174982271504	86.711438993432
6	87246	27306.118003684257	1022.0613409975
6	87263	27311.187237866011	337.29441292133
6	87283	27317.100949795146	248.9037480987
6	87318	27328.60015171652	339.01284990762
6	87340	27335.272663694967	90.692513156912
6	87373	27346.126560506012	431.24121753786
6	87400	27353.699891411672	87.189251642655
6	87413	27358.527039729404	87.529891705568
6	87435	27368.0085907025	177.32998871508
6	87486	27382.934300360057	1207.11569099
6	87520	27393.376515995311	333.55517582565
6	87527	27394.894803698706	88.722444967652
6	87562	27406.874737410406	264.18704657493
6	87583	27414.555762284035	343.24654866397
6	87600	27419.580578964362	693.68671859804
6	87615	27424.322963838996	518.02477014057
6	87632	27429.296319200256	438.84614227326
6	87781	27474.917143979266	520.30562590242
6	87855	27496.992379328765	353.44155546064
6	87861	27500.146890659601	990.96257888503
6	87911	27514.265504929021	178.18793102319
6	87951	27527.227952081866	268.05643553741
6	88015	27546.798339865886	439.51888317349
6	88018	27548.656040736072	265.88275114401
6	88033	27552.779841423564	616.54869340928
6	88102	27573.582848282503	447.18774311302
6	88105	27574.914281587089	180.02231741211
6	88125	27580.695453392687	269.79978162817
6	88274	27624.09294506923	265.59774466885
6	88303	27631.631826078487	1581.5159530823
6	88310	27633.258777581123	446.07067022879
6	88336	27639.300881753084	870.24818533313
6	88349	27643.849313891087	448.36280744965
6	88352	27645.376793838818	262.81374536118
6	88361	27647.176125634987	790.90484690381
6	88382	27655.234319710884	1656.1646565534
6	88389	27656.750813619386	88.900471760007
6	88392	27658.194211509045	267.25130084484
6	88421	27665.600839777442	89.4799083501
6	88448	27673.56149137594	534.0875142733
6	88453	27675.098646770196	699.94415152706
6	88529	27698.97752347995	539.4460425421
6	88596	27717.118397373672	93.270394932811
6	88608	27720.35535003316	545.54695732525
6	88617	27724.683593932506	1387.5979255253
6	88651	27734.886256652665	100.03267374107
6	88680	27743.519256648761	192.99174666184
6	88686	27746.829558422384	454.14384449923
6	88701	27751.959291333859	458.19083821261
6	88706	27753.162609047038	365.35352126461
6	88711	27754.991587266294	186.43406823995
6	88751	27766.601224529527	97.768623883003
6	88757	27770.244489258125	546.73189947226
6	88783	27776.506122222512	456.62221327843
6	88798	27780.839242645882	629.75360958261
6	88801	27782.175700212985	541.69129330351
6	88833	27791.595964894973	191.58933781246
6	88863	27801.882966882148	371.81248234092
6	88880	27806.729627427989	287.04759579707
6	88883	27808.258649471932	195.61788962798
6	88900	27816.000504064345	102.67241032278
6	88941	27828.176894018956	100.14151552622
6	88951	27831.406941893295	101.52663806362
6	88956	27833.320577969559	202.037762732
6	89011	27847.530025197163	1873.8763439488
6	89150	27895.062457163417	470.28399031858
6	89215	27912.297027519504	90.639033767864
6	89220	27914.147407813343	660.27114533792
6	89225	27916.040428687419	293.09311938697
6	89237	27919.636560350816	200.05819186362
6	89280	27930.618894623007	91.237800078465
6	89288	27934.265805448937	395.52214945176
6	89342	27955.425636437881	97.829142512605
6	89377	27962.729168595533	390.64843546592
6	89396	27967.149488490607	202.24605529515
6	89412	27970.224580194402	484.42324100046
6	89417	27972.028095564406	752.25842530471
6	89430	27977.115926506344	203.93332377461
6	89437	27979.089337459925	580.75845396048
6	89462	27986.738604585986	209.81986535437
6	89510	28002.697094375614	213.06003355759
6	89518	28005.644823141369	405.08576258119
6	89546	28014.627491094703	768.0155843409
6	89575	28023.419270617487	312.59484752921
6	89619	28036.965485968973	200.99614894127
6	89718	28066.507538190456	502.10333272385
6	89733	28071.214063688898	207.33007841616
6	89756	28078.826541649894	412.15785281782
6	89759	28080.357448092819	406.52695600793
6	89767	28083.154564567813	105.01767734013
6	89770	28085.111797375017	198.85375032814
6	89877	28117.025740780654	508.19288094776
6	89887	28120.438615675244	314.21233259597
6	89897	28123.307518887307	1124.5799600033
6	89917	28129.677072377104	962.65964292219
6	89958	28140.456293272574	103.07257238498
6	89977	28145.352134015758	205.67550207598
6	90006	28156.536893418778	312.4642476561
6	90020	28159.471969672639	199.07981823901
6	90035	28164.036938620705	316.91675679091
6	90049	28169.785313119899	784.81647422909
6	90110	28190.068264056903	876.34692634598
6	90115	28191.810020789665	865.96892317637
6	90176	28209.494534108577	100.52045201647
6	90184	28212.756838197423	204.60699371562
6	90187	28214.338977813883	703.70832105504
6	90190	28216.320566526218	420.0948582771
6	90201	28220.643940869509	706.61492985059
6	90211	28223.341516185342	299.21391080403
6	90252	28237.449198782049	202.48574809882
6	90293	28249.476361991256	621.76176084607
6	90298	28250.936200332433	106.14135708627
6	90303	28252.895619115211	105.89010739476
6	90313	28255.579224700458	415.84341016476
6	90365	28273.385150106601	1344.8738230945
6	90406	28285.461909994834	103.23325471102
6	90425	28290.646262263858	624.50116716033
6	90446	28299.192899020181	796.56276731701
6	90484	28312.477071694263	1406.1966894953
6	90492	28315.138131768235	619.85354446082
6	90510	28321.283284040147	301.68998864146
6	90569	28337.474983670354	507.0409698299
6	90597	28347.504006474443	97.269477879816
6	90652	28364.183548675455	627.76156774026
6	90674	28370.583685401805	732.35663166986
6	90684	28374.172045255989	99.009868480416
6	90691	28375.890475574486	734.06694627806
6	90701	28379.193446565583	101.96618033088
6	90743	28392.912549233414	422.80306907965
6	90774	28401.55731676796	498.33350294194
6	90777	28402.796093694284	803.921855873
6	90812	28414.21747614441	94.977606282883
6	90865	28431.330247663309	402.64881455149
6	90874	28433.219654807796	298.18441674915
6	90877	28435.205794485261	198.88701983527
6	90890	28439.574237476264	199.70751984813
6	90928	28453.231451090214	201.9003785138
6	90943	28457.750336054501	201.57940085002
6	90968	28465.790453280111	509.98680203922
6	90988	28472.250569658888	1369.8076506823
6	91017	28480.712261825774	203.48609318433
6	91025	28484.267280475024	103.36042827938
6	91094	28505.104936013903	105.93238107455
6	91158	28520.747207777735	415.83252005974
6	91170	28524.460092414331	316.49505018363
6	91190	28531.125250366119	405.79394036741
6	91193	28532.362799659719	102.27876884618
6	91201	28535.399477889363	203.7284460106
6	91204	28536.750256324906	715.98415894627
6	91240	28548.289410917249	200.17838868345
6	91285	28562.660354957332	300.07310612791
6	91295	28565.966907278982	198.49214605666
6	91327	28576.162039022868	303.28235613739
6	91330	28577.535008310502	302.68423476652
6	91340	28580.633829999877	100.60137327539
6	91355	28585.483427161513	100.52731561545
6	91371	28590.969830550415	733.23221853252
6	91374	28592.334902831142	100.16361414358
6	91377	28593.805489080188	203.32690207135
6	91382	28595.566909967897	526.79125132191
6	91409	28603.699638929566	722.93980226787
6	91431	28610.372988613111	206.00419473871
6	91436	28612.223795727429	508.48921941542
6	91441	28614.220514013779	102.26034298197
6	91465	28623.838114969593	312.19124701291
6	91472	28625.611145993297	312.88647351271
6	91575	28659.814850158781	620.14514841637
6	91580	28661.51330095695	721.7687626141
6	91585	28663.133568998963	508.67590900185
6	91588	28664.966390548811	203.83558691489
6	91624	28673.964212693438	100.99747464589
6	91643	28678.810679901928	299.92165469452
6	91664	28686.558707760438	199.33149901227
6	91681	28691.573433994478	1211.8056798749
6	91706	28699.450976848393	1913.6452234755
6	91719	28703.794784677005	929.39242618522
6	91783	28725.75695083493	309.14843279072
6	91793	28729.072972803727	1303.1503813816
6	91798	28730.386462892384	929.285012778
6	91805	28732.20076493656	202.51203183784
6	91816	28736.594971509443	605.74996979432
6	91826	28740.371571477109	88.031764610489
6	91872	28752.393831795804	715.67006772443
6	91882	28755.327158721887	707.44576613399
6	91887	28757.283571767599	2197.1602213341
6	91919	28765.728700520821	290.75159725491
6	91924	28767.356146531902	89.109412360437
6	92019	28797.893645651617	284.37388857986
6	92045	28803.803574612156	898.84299967651
6	92066	28811.3493804354	180.21601901435
6	92083	28816.367772631512	1731.7231840797
6	92102	28821.399844220632	383.41634517016
6	92123	28829.096422049755	3099.9811778972
6	92190	28850.157059513012	80.715432460967
6	92204	28853.324321269037	372.84609325348
6	92217	28858.045867694334	82.165828032215
6	92239	28864.141880145647	172.39353539071
6	92311	28883.748188477546	167.12457265369
6	92329	28889.878805540666	169.74199984019
6	92332	28891.139906645916	481.93203051945
6	92352	28896.904470765941	989.55878307722
6	92400	28910.273831148611	162.32177607547
6	92408	28913.803983251916	2592.0873487182
6	92425	28918.46399738265	167.67920691925
6	92502	28944.039740596507	564.3076525164
6	92533	28951.839497688208	355.36657372225
6	92622	28977.716959142668	464.1152436905
6	92641	28985.447518761066	464.58341922762
6	92728	29011.578986057064	255.77033130418
6	92731	29013.351482753998	663.9509159007
6	92746	29017.572126652098	547.91815081405
6	92769	29024.96961316148	1922.9792091858
6	92825	29037.819958227855	174.76004103519
6	92904	29058.151953874512	91.11419957176
6	92910	29061.762193902938	263.19670237802
6	92939	29069.484529557622	354.1755235877
6	92947	29072.778562932819	268.61599597091
6	92960	29076.916981751271	449.27412147384
6	92992	29086.273615535147	181.9540293947
6	93080	29115.074438992684	186.67383224926
6	93149	29135.441313691049	551.31076006154
6	93179	29145.223249571755	102.71662481708
6	93182	29146.782363271325	868.65631028365
6	93258	29165.152585323698	108.1552061302
6	93438	29211.854468144834	300.81713976077
6	93443	29213.096171256512	380.42460031437
6	93577	29257.091785076432	394.05469581306
6	93580	29258.471723305233	1402.3256448575
6	93594	29261.780362944662	217.95177071362
6	93604	29265.490728520959	112.43204504798
6	93634	29274.36829887478	114.28348326439
6	93702	29292.203966422365	685.08558618283
6	93711	29297.147600742787	417.05464299445
6	93745	29306.078305905857	793.40269005492
6	93802	29324.540740767106	2169.7296177604
6	93825	29332.838903594002	239.06965587414
6	93830	29334.247698974036	428.75864458996
6	93939	29370.439880235479	343.58832300467
6	93978	29382.452298585311	706.66701984497
6	93981	29384.057196533852	619.451017322
6	94041	29400.972616033241	254.15932526395
6	94063	29407.629828658871	357.62008580012
6	94093	29416.105904321915	1754.1056639455
6	94106	29420.518350934035	462.86600104196
6	94143	29430.972787962651	374.51040279598
6	94213	29450.136840664019	378.16467456693
6	94216	29451.87950996345	723.12606087741
6	94261	29465.271619424205	145.75679884308
6	94340	29487.095921530742	277.65405869666
6	94348	29490.118580348584	142.67322405229
6	94383	29500.784296532515	1364.3681170902
6	94421	29510.052772104721	1370.6228588502
6	94435	29513.174373304639	590.85726527235
6	94475	29524.717835223842	143.41791085978
6	94495	29531.106464186477	140.80257558397
6	94528	29542.108394125828	146.39894638241
6	94548	29549.47915360702	512.4862273561
6	94604	29565.392512313814	291.90018721616
6	94632	29574.531521763445	148.01975785949
6	94665	29582.860881260016	150.09947826119
6	94668	29584.695244620346	1602.7397118595
6	94687	29589.950707348229	152.04216548159
6	94692	29591.20842020137	300.50723141894
6	94709	29595.888003733919	154.92773050114
6	94739	29605.583726969713	425.89639318777
6	94762	29613.40920119209	427.99107392705
6	94780	29620.82048741726	542.54992853264
6	94786	29624.091622071506	633.4390274448
6	94796	29627.234387855397	158.81762875947
6	94806	29630.762616524452	160.47182858933
6	94809	29632.448490357937	161.42390982086
6	94812	29633.681418289596	442.38979890645
6	94839	29641.574807406382	442.38850510149
6	94842	29643.432397872747	737.66283790588
6	94885	29658.394272199624	308.80031789571
6	94890	29659.945228112095	1421.0961743838
6	94952	29680.776587193064	169.08974326183
6	94962	29683.577035839274	171.55080455549
6	95022	29701.88477850256	171.73713586331
6	95030	29704.982687586336	671.80526069949
6	95039	29706.776045427075	314.94245545078
6	95096	29723.780241161933	772.42828730677
6	95132	29733.439071941351	682.38163249606
6	95154	29739.985932207828	466.42000895875
6	95216	29759.402011441415	888.46432797663
6	95238	29765.916758501505	179.44227832966
6	95243	29767.156090342415	891.62769089985
6	95399	29814.593543371905	330.80103856307
6	95421	29820.721018185628	1991.0092217637
6	95433	29824.317030500409	615.63355673112
6	95441	29827.234954400149	168.24754004399
6	95448	29829.114869269145	824.12168857309
6	95463	29834.15314778888	333.77145056865
6	95471	29837.481621159775	624.71141679533
6	95486	29842.183388366153	626.67373023618
6	95512	29850.804545573121	1012.4681068066
6	95543	29858.860474376916	486.3292263956
6	95566	29866.579703994817	346.70179756737
6	95604	29875.009121411457	741.84870409858
6	95607	29876.511975947372	631.45025888117
6	95666	29895.237711306639	2349.3496588714
6	95682	29901.425980383694	497.15555357689
6	95729	29915.693942081905	756.73399630188
6	95810	29938.340831860132	352.26924702007
6	95822	29941.551807967365	771.33232097167
6	95825	29943.149580902212	166.22841370684
6	95886	29959.876346574143	512.00483921679
6	95905	29964.352243332916	510.06008199844
6	95925	29970.559374343023	783.52420225885
6	95928	29972.333066919424	654.71085634594
6	95944	29978.190127821244	349.09144306964

