version 2
run Third_exit_9-15-20191023-00:20:32-5336
attr configname Third_exit_9
attr datetime 20191023-00:20:32
attr experiment Third_exit_9
attr inifile omnetpp.ini
attr iterationvars ""
attr iterationvarsf ""
attr measurement ""
attr network ResponseTimeNetwork
attr processid 5336
attr repetition 15
attr replication #15
attr resultdir results
attr runnumber 15
attr seedset 15
param **.Source.interArrivalTime exponential(6s)
param **.jobPriority bernoulli(0.8)
param **.PS.serviceTimeU1 "uniform(1.2s, 2.0s)"
param **.PS.serviceTimeU2 "uniform(2.4s, 2.8s)"
param **.SS1.serviceTime exponential(1.4s)
param **.SS2.serviceTime exponential(2s)
param **.PS.exitProbability bernoulli(0.9)

vector 0 ResponseTimeNetwork.SS1 queueLength:vector ETV
attr interpolationmode sample-hold
attr title "queue length, vector"
vector 1 ResponseTimeNetwork.SS2 queueLength:vector ETV
attr interpolationmode sample-hold
attr title "queue length, vector"
vector 2 ResponseTimeNetwork.QueueU1 queueLength:vector ETV
attr interpolationmode sample-hold
attr title "queue length, vector"
vector 3 ResponseTimeNetwork.QueueU2 queueLength:vector ETV
attr interpolationmode sample-hold
attr title "queue length, vector"
vector 4 ResponseTimeNetwork.sink lifeTimeU1:vector ETV
attr interpolationmode none
attr title "lifetime of arrived jobs U1, vector"
attr unit s
vector 5 ResponseTimeNetwork.sink lifeTime:vector ETV
attr interpolationmode none
attr title "lifetime of arrived jobs, vector"
attr unit s
vector 6 ResponseTimeNetwork.sink lifeTimeU2:vector ETV
attr interpolationmode none
attr title "lifetime of arrived jobs U2, vector"
attr unit s
2	0	0	0
2	35	22.982395594271	1
2	36	24.154594786513	0
2	55	33.768660232423	1
2	56	33.917653894016	0
2	75	42.709150848902	1
2	76	42.928974458544	0
2	90	47.006347888985	1
2	91	48.768417079092	0
2	95	49.372623653245	1
2	97	49.761169962609	2
2	98	50.398613252954	1
2	102	51.032916612519	2
2	103	52.284390587823	1
2	107	53.528473663947	2
2	108	53.998570493513	1
2	112	54.761144654355	2
2	114	55.158622127415	3
2	115	55.754389858895	2
2	119	55.955318303646	3
2	120	57.27934147408	2
2	124	57.395567715713	3
2	126	58.256088132826	4
2	128	58.607148179958	5
2	129	59.010573997626	4
2	133	59.096562291942	5
2	135	59.261347888738	6
2	136	60.233901165331	5
2	140	60.433113621762	6
2	141	62.05989450598	5
2	145	62.477126971726	6
2	147	63.06098040169	7
2	148	63.771486052031	6
2	152	64.024160523564	7
2	153	65.243487022909	6
2	157	66.424930201063	7
2	158	67.056667530256	6
2	162	68.9140604608	7
2	163	68.997305387537	6
2	166	70.830744988936	5
2	170	70.977927838601	6
2	171	72.385844655055	5
2	175	73.337886058666	6
2	177	73.483054697907	7
2	179	73.827239466474	8
2	181	73.971218885702	9
2	182	74.239429103303	8
2	186	75.3363812584	9
2	187	75.870546726602	8
2	191	76.19760221339	9
2	193	76.267971990307	10
2	195	76.659400519997	11
2	196	77.486943908128	10
2	200	77.755566325528	11
2	201	79.169722350593	10
2	204	80.81119838925	9
2	208	81.600702378227	10
2	209	82.273421147186	9
2	213	83.190864689929	10
2	215	83.591477125502	11
2	216	83.64974077614	10
2	220	84.664976564105	11
2	221	85.58409389453	10
2	224	87.580275096092	9
2	227	89.061908212397	8
2	231	89.285352878192	9
2	233	89.325545948604	10
2	234	90.745774762798	9
2	237	92.047848491277	8
2	241	92.244242606247	9
2	243	92.320394241554	10
2	245	92.810363764613	11
2	246	93.490771485026	10
2	249	94.80736426236	9
2	252	96.501386857497	8
2	256	96.739941609078	9
2	257	97.999373531247	8
2	261	98.050505052143	9
2	263	98.520485698033	10
2	264	99.611913815791	9
2	267	100.973007110039	8
2	271	102.053022837068	9
2	272	102.174322915541	8
2	276	103.521442542972	9
2	277	103.924656870866	8
2	281	104.285254696663	9
2	283	104.447907070751	10
2	286	105.523790768625	9
2	290	105.641733560123	10
2	291	106.884366739632	9
2	295	108.221151833294	10
2	296	108.243303021321	9
2	299	109.733935657607	8
2	302	110.945938980111	7
2	306	111.990420033895	8
2	307	112.865720908434	7
2	311	113.382121591884	8
2	312	114.237305677586	7
2	317	115.934601945148	6
2	320	117.613833678791	5
2	324	118.335971101939	6
2	325	118.925256649868	5
2	329	120.163324161557	6
2	330	120.193867212066	5
2	334	121.269891382411	6
2	335	121.401102721037	5
2	339	122.584732963329	6
2	341	122.765967776559	7
2	342	122.860371450426	6
2	346	123.023607130691	7
2	347	124.297680124173	6
2	351	124.557829457484	7
2	353	124.958093159982	8
2	354	126.108010397757	7
2	357	127.407200450169	6
2	360	128.775197036283	5
2	364	128.91752694692	6
2	366	129.409531925572	7
2	367	130.267491195815	6
2	371	131.636841117363	7
2	372	131.897462854253	6
2	376	132.487384498168	7
2	377	133.58666995121	6
2	380	134.863638988974	5
2	383	136.410856328065	4
2	386	137.714183285179	3
2	390	138.779473435631	4
2	393	139.086505979577	3
2	396	140.311855049895	2
2	400	141.058495795394	3
2	401	141.896026261242	2
2	404	143.468626885766	1
2	408	143.810380427146	2
2	410	144.083833419382	3
2	412	144.748295564278	4
2	414	144.910243259621	5
2	415	145.211120466234	4
2	419	146.674675594495	5
2	420	146.703136293681	4
2	424	147.761201272355	5
2	425	148.416421860175	4
2	429	148.996755222875	5
2	431	148.997578800746	6
2	433	149.240899999587	7
2	434	149.708732542487	6
2	438	150.335916245185	7
2	439	151.129405000338	6
2	442	152.49065556498	5
2	446	154.024174601361	6
2	448	154.119766653065	7
2	451	154.1826967773	6
2	454	155.749285940171	5
2	458	155.870846695979	6
2	461	157.530553981007	5
2	465	158.050561376227	6
2	467	158.331964950457	7
2	469	158.513306662169	8
2	470	159.339575318151	7
2	474	160.227561174587	8
2	475	160.981510773019	7
2	478	162.260943219529	6
2	482	163.018739261644	7
2	483	163.735067220123	6
2	486	165.647642064558	5
2	489	167.279271822514	4
2	493	167.350702244184	5
2	494	168.946845652068	4
2	497	170.921649855094	3
2	501	171.180173193769	4
2	502	172.184873458648	3
2	506	172.219908678286	4
2	507	174.09170204615	3
2	510	175.358687175901	2
2	514	176.239490236007	3
2	515	176.561776170225	2
2	519	176.960885549775	3
2	521	177.04751436478	4
2	523	177.216545063707	5
2	525	177.366608570415	6
2	526	178.171902115175	5
2	530	178.382795614737	6
2	531	179.425060078034	5
2	535	180.77330747581	6
2	536	181.282537279183	5
2	540	183.142191361909	6
2	541	183.14478714438	5
2	544	184.94675423568	4
2	547	186.370918740424	3
2	551	187.692587092048	4
2	553	187.736490737101	5
2	554	188.327898266817	4
2	558	188.709925953127	5
2	559	189.737134012672	4
2	562	191.19109917702	3
2	565	193.114187726656	2
2	569	193.34119284336	3
2	570	194.734897176454	2
2	574	195.720733002679	3
2	575	196.695585818308	2
2	579	196.987884241156	3
2	581	197.600516112684	4
2	583	197.845869151372	5
2	585	197.857792949993	6
2	586	197.904614236856	5
2	590	198.811023319486	6
2	592	199.032126630813	7
2	593	199.159092744717	6
2	597	199.933911766299	7
2	599	200.580437314647	8
2	600	200.852321181537	7
2	604	202.153957762375	8
2	605	202.26504252916	7
2	611	203.447474269644	8
2	612	203.714755758734	7
2	615	205.153127653243	6
2	619	205.591984314573	7
2	621	206.029254481292	8
2	622	206.789669576565	7
2	625	208.767083813528	6
2	629	208.806557646029	7
2	630	210.303248988556	6
2	633	211.670614689308	5
2	637	211.976487161653	6
2	639	212.322041431552	7
2	641	213.258934382744	8
2	642	213.543673488031	7
2	646	213.591859298298	8
2	648	214.529240197406	9
2	650	214.723570556116	10
2	651	215.195876500289	9
2	655	215.366489987663	10
2	657	215.678689918984	11
2	658	216.56341262171	10
2	661	217.901082233246	9
2	665	219.471251677894	10
2	666	219.593685181718	9
2	669	221.237679058406	8
2	673	222.82457557811	9
2	674	223.000158159341	8
2	678	224.552966273199	9
2	679	224.671266520861	8
2	683	224.983007807767	9
2	685	225.741598951804	10
2	687	225.778658578409	11
2	688	226.204845194797	10
2	691	228.035211938339	9
2	695	228.537572464338	10
2	697	228.565917182725	11
2	698	229.716239688637	10
2	702	230.687377079153	11
2	703	231.117312367538	10
2	707	231.32302447266	11
2	709	231.619778211132	12
2	710	232.4975920015	11
2	714	232.615616687644	12
2	716	232.931825051461	13
2	717	233.81313620014	12
2	720	235.025885343085	11
2	725	236.808200138899	10
2	729	236.894970309274	11
2	730	238.706412300559	10
2	733	240.547845919522	9
2	737	241.352672781956	10
2	740	242.248753753024	9
2	744	243.252366694848	10
2	745	243.664339779409	9
2	748	245.070196309219	8
2	752	246.155393049623	9
2	753	246.862355980742	8
2	756	248.820395693089	7
2	760	248.909244797875	8
2	762	249.08213861057	9
2	764	249.689219243925	10
2	765	250.143604760337	9
2	769	250.668951132208	10
2	770	251.601476433779	9
2	774	252.503710392172	10
2	775	253.134860067534	9
2	778	254.543274021986	8
2	781	255.809341249335	7
2	785	256.139047502784	8
2	787	256.537983346014	9
2	788	257.052163740526	8
2	791	258.501546711194	7
2	795	258.827548863132	8
2	797	259.387314328084	9
2	799	259.650572672928	10
2	801	259.781561633773	11
2	802	260.221599452289	10
2	805	261.743606129939	9
2	809	262.035551086781	10
2	810	262.991931860427	9
2	813	264.421498425397	8
2	817	264.806230047757	9
2	819	265.592126091312	10
2	820	265.667628652695	9
2	825	267.077906493376	8
2	828	268.487778306286	7
2	832	268.8890315422	8
2	834	269.29298677708	9
2	836	269.495089125545	10
2	837	270.400483005214	9
2	840	272.149258089717	8
2	844	272.358309291454	9
2	846	272.756505290652	10
2	847	273.605976230185	9
2	851	274.306102303239	10
2	852	275.557980733271	9
2	856	275.760140060648	10
2	858	275.842598936986	11
2	859	277.270822924468	10
2	863	278.585915604309	11
2	864	278.804724260326	10
2	867	280.318903776165	9
2	871	281.819638744729	10
2	872	282.232050606329	9
2	876	282.3357657894	10
2	878	283.115651036939	11
2	879	283.437583342474	10
2	882	284.745653947722	9
2	886	285.57948653049	10
2	887	286.211303120944	9
2	891	286.804270268005	10
2	893	286.90503944229	11
2	894	287.467942149657	10
2	898	288.196419875058	11
2	899	288.794275241251	10
2	903	289.452505869017	11
2	905	289.564912097908	12
2	907	289.968968599076	13
2	909	290.118089127037	14
2	910	290.763817764352	13
2	914	290.890959858858	14
2	915	292.343945989477	13
2	918	293.577853473554	12
2	922	293.947021816462	13
2	923	295.547227842453	12
2	927	295.625032082096	13
2	929	296.051653624599	14
2	931	296.351957463743	15
2	934	297.337863738741	14
2	938	298.42154698766	15
2	940	298.763277538636	16
2	941	299.331490234005	15
2	945	300.739340024239	16
2	946	300.862509220558	15
2	950	300.864533134606	16
2	952	302.237049273487	17
2	953	302.620657487306	16
2	957	303.685735937564	17
2	958	303.877609724271	16
2	962	304.256336739113	17
2	963	305.726404786388	16
2	966	307.134631069655	15
2	969	308.468806758242	14
2	973	308.614124270842	15
2	975	308.670636918319	16
2	976	310.448554549272	15
2	980	310.493158806818	16
2	981	311.89566909382	15
2	985	312.26049907487	16
2	986	313.283134362007	15
2	989	314.85795337865	14
2	993	315.376924935653	15
2	994	316.076961728091	14
2	998	317.226776280195	15
2	999	317.494389987643	14
2	1003	317.870591051062	15
2	1005	318.369896096333	16
2	1008	319.135421748738	15
2	1012	320.010583662015	16
2	1013	321.132275133486	15
2	1016	322.900958482268	14
2	1019	324.602942620496	13
2	1023	324.703593842442	14
2	1024	326.221412428747	13
2	1028	327.187787530657	14
2	1029	327.597133470233	13
2	1033	329.063362156124	14
2	1034	329.328439769428	13
2	1038	329.839903643639	14
2	1039	330.568343176786	13
2	1043	331.296212896151	14
2	1044	331.972048152518	13
2	1048	332.082653822428	14
2	1049	333.357971021999	13
2	1053	333.974607382089	14
2	1054	334.61205314165	13
2	1058	336.185462918155	14
2	1060	336.450613298188	15
2	1061	336.551805821154	14
2	1065	337.069999686024	15
2	1066	338.00899112327	14
2	1070	339.761783027519	15
2	1071	339.801317137759	14
2	1074	341.219279668387	13
2	1078	341.884726757019	14
2	1079	342.673453796376	13
2	1083	343.378746733271	14
2	1085	343.500060451914	15
2	1086	344.260824336019	14
2	1090	344.936331470574	15
2	1092	345.950164917166	16
2	1093	345.970928829443	15
2	1097	346.401713241699	16
2	1098	347.217070984002	15
2	1104	348.656671463023	16
2	1105	348.97413443746	15
2	1109	349.119385018189	16
2	1111	350.77573775157	17
2	1112	350.798170262295	16
2	1116	351.811742837729	17
2	1118	351.820601490831	18
2	1120	352.017092633769	19
2	1122	352.031879621009	20
2	1123	352.383071250188	19
2	1127	352.932465715113	20
2	1128	353.866904099564	19
2	1132	353.976527289139	20
2	1133	355.254860326367	19
2	1139	356.054316151872	20
2	1140	357.056683813127	19
2	1143	358.906580055597	18
2	1147	359.379591165002	19
2	1148	360.718968919012	18
2	1151	362.664898887928	17
2	1155	363.710241963084	18
2	1156	364.387470761593	17
2	1159	365.976021553669	16
2	1162	367.381847411301	15
2	1166	367.765427447954	16
2	1168	368.908471359364	17
2	1169	368.96047938196	16
2	1172	370.762642173749	15
2	1176	371.123150144267	16
2	1177	372.167962695379	15
2	1181	373.240930380863	16
2	1182	373.661622304376	15
2	1186	373.873705911426	16
2	1188	374.025749344726	17
2	1189	374.919606008474	16
2	1193	375.430708627349	17
2	1194	376.425772960019	16
2	1198	378.204696885137	17
2	1199	378.418698603009	16
2	1203	379.069002381278	17
2	1204	380.032282637526	16
2	1208	380.426195671422	17
2	1209	381.755628005323	16
2	1212	383.094726810326	15
2	1216	383.806726615575	16
2	1218	383.927943820759	17
2	1219	384.559224483465	16
2	1223	385.391021447488	17
2	1224	386.019725575392	16
2	1228	386.519866661052	17
2	1229	387.448501090613	16
2	1232	389.170191726182	15
2	1236	389.914989253981	16
2	1237	390.97039771257	15
2	1241	391.308348868032	16
2	1243	391.620618531386	17
2	1245	392.375215695107	18
2	1246	392.670417536144	17
2	1249	394.605926612859	16
2	1253	394.667482473304	17
2	1254	396.086751193648	16
2	1258	396.635616391804	17
2	1259	397.792713625451	16
2	1263	399.01442011703	17
2	1264	399.299620785659	16
2	1268	400.227562998638	17
2	1269	400.904233200757	16
2	1273	401.071704145604	17
2	1274	402.204217461219	16
2	1278	402.275497633968	17
2	1279	403.589634881822	16
2	1283	403.924275793085	17
2	1284	405.414191880358	16
2	1288	405.431799468794	17
2	1290	405.576009029827	18
2	1291	407.173861080503	17
2	1294	408.581131146571	16
2	1298	410.413579822021	17
2	1299	410.43344776435	16
2	1303	412.026656692604	17
2	1305	412.032874580554	18
2	1306	412.214976502491	17
2	1309	414.108813081218	16
2	1313	414.695352666086	17
2	1314	415.609657732865	16
2	1318	415.841652266663	17
2	1319	416.82095177239	16
2	1322	418.632679562738	15
2	1326	418.938645254068	16
2	1328	419.776049745161	17
2	1329	419.838852740174	16
2	1333	420.457958561043	17
2	1335	421.223145374374	18
2	1336	421.257035663819	17
2	1340	421.325521408355	18
2	1341	423.203575172184	17
2	1344	425.152980085744	16
2	1348	425.158432581034	17
2	1349	426.772130528747	16
2	1353	427.325045472932	17
2	1356	427.989076092935	16
2	1359	429.697659606024	15
2	1363	429.803119044393	16
2	1365	430.42373092517	17
2	1366	431.608405611201	16
2	1369	433.060409590884	15
2	1372	434.834657622783	14
2	1376	435.061714876703	15
2	1378	436.071701317245	16
2	1379	436.723899157627	15
2	1383	436.93432735784	16
2	1385	437.424942903249	17
2	1386	437.981774559712	16
2	1389	439.500209275356	15
2	1393	439.845284035541	16
2	1397	440.983145280967	17
2	1398	441.311070416404	16
2	1401	442.694244612848	15
2	1405	443.432692766335	16
2	1406	444.454790063297	15
2	1410	444.517618481692	16
2	1411	446.251800847707	15
2	1414	447.561001782586	14
2	1418	448.491317233616	15
2	1419	448.95163717894	14
2	1423	449.696616606438	15
2	1425	450.374011444468	16
2	1426	450.94152414864	15
2	1429	452.265245180671	14
2	1433	452.5324459992	15
2	1435	452.693474376521	16
2	1437	453.443544657452	17
2	1438	453.555116573629	16
2	1442	453.831417895745	17
2	1443	454.862500120607	16
2	1446	456.295314919297	15
2	1450	456.812108820018	16
2	1451	458.240273578931	15
2	1456	459.502970166039	14
2	1460	461.134525004576	15
2	1461	461.246460243594	14
2	1465	461.428244406439	15
2	1467	462.080607477179	16
2	1468	463.023003674951	15
2	1471	464.263144670521	14
2	1474	465.742022842635	13
2	1477	467.647224171926	12
2	1480	469.204554230814	11
2	1484	470.10190328491	12
2	1486	470.828319007484	13
2	1487	470.933790513036	12
2	1491	472.194572686443	13
2	1492	472.778658188229	12
2	1496	472.995233970854	13
2	1497	474.515180985352	12
2	1501	475.203113067362	13
2	1502	476.260885529501	12
2	1506	477.154102343842	13
2	1508	477.439198815218	14
2	1509	477.781733973419	13
2	1513	477.907021634049	14
2	1514	479.607965605987	13
2	1517	480.998923336996	12
2	1520	482.894888571931	11
2	1524	483.287616310504	12
2	1526	483.431561503417	13
2	1528	483.897988039777	14
2	1529	484.452831440141	13
2	1533	485.560604634567	14
2	1534	485.933382060287	13
2	1538	486.631425649511	14
2	1540	487.090932344316	15
2	1541	487.329878378195	14
2	1545	487.602972358998	15
2	1547	488.172436750302	16
2	1548	488.754513725174	15
2	1551	490.538265453746	14
2	1555	490.833682097778	15
2	1557	491.002308932013	16
2	1558	491.793072982041	15
2	1562	492.128084253133	16
2	1564	493.061589680829	17
2	1565	493.466628991535	16
2	1569	493.792133326215	17
2	1571	493.940419338599	18
2	1572	494.734262955284	17
2	1576	495.463841824719	18
2	1577	495.980773743524	17
2	1581	496.39789275501	18
2	1582	497.263239882237	17
2	1585	499.056845278202	16
2	1589	499.865937264648	17
2	1591	500.117659072206	18
2	1592	500.376140729992	17
2	1596	500.458523966662	18
2	1597	502.072303742638	17
2	1601	502.151402695303	18
2	1602	503.653951867951	17
2	1606	504.660599310655	18
2	1607	505.247068831978	17
2	1611	505.483678607112	18
2	1613	505.866390244728	19
2	1615	506.509081957652	20
2	1616	506.513314837498	19
2	1620	507.051350900753	20
2	1621	507.771876745207	19
2	1625	508.627532221857	20
2	1626	509.020427341481	19
2	1630	509.450070361457	20
2	1631	510.247509905231	19
2	1635	510.6899955975	20
2	1636	511.896666579974	19
2	1640	512.382617293373	20
2	1641	513.562438147609	19
2	1645	513.78258921252	20
2	1646	514.765935849865	19
2	1650	515.805847439238	20
2	1651	516.135064893496	19
2	1654	517.992334714439	18
2	1657	519.207408618089	17
2	1663	520.377465098428	18
2	1664	520.556306208391	17
2	1667	521.812115261425	16
2	1671	521.987272623382	17
2	1673	522.603073848211	18
2	1674	523.0764465441	17
2	1677	524.872469546553	16
2	1681	525.107963087238	17
2	1683	525.240841993021	18
2	1685	525.515181617873	19
2	1686	526.386930530425	18
2	1689	528.291683082003	17
2	1693	528.469965206717	18
2	1694	529.876446293574	17
2	1698	530.931465789255	18
2	1700	531.305779875161	19
2	1701	531.324303981569	18
2	1705	531.418056767699	19
2	1707	532.730775575932	20
2	1708	532.814259127993	19
2	1711	534.678494302463	18
2	1715	535.654983283419	19
2	1717	536.103819899303	20
2	1718	536.187122725975	19
2	1722	537.612440791921	20
2	1724	537.76430248905	21
2	1725	537.991038556304	20
2	1729	539.254024535269	21
2	1731	539.428947447143	22
2	1732	539.564744388219	21
2	1736	540.068971810562	22
2	1738	540.409036153384	23
2	1740	540.538446613722	24
2	1741	541.089349498507	23
2	1745	541.729903281853	24
2	1746	542.336214043107	23
2	1749	543.756224909518	22
2	1753	544.388265715905	23
2	1755	544.64668479467	24
2	1756	545.591381285433	23
2	1760	545.628134038827	24
2	1762	545.648135855697	25
2	1763	547.090762947779	24
2	1767	548.104229576716	25
2	1769	548.174770830541	26
2	1770	548.326644126046	25
2	1774	548.743517499675	26
2	1775	549.864692252408	25
2	1779	550.690893463174	26
2	1780	551.341108257788	25
2	1783	553.142598708438	24
2	1787	554.397471909135	25
2	1788	554.7445477535	24
2	1792	555.943347457994	25
2	1793	556.13263590345	24
2	1797	556.735505812601	25
2	1798	557.791915854903	24
2	1802	558.113543951531	25
2	1803	559.093759194108	24
2	1807	559.541513751636	25
2	1808	560.496226257364	24
2	1812	560.541408488076	25
2	1814	561.010472390197	26
2	1816	561.400175680239	27
2	1817	561.865746183413	26
2	1820	563.722475590835	25
2	1824	563.879146781119	26
2	1825	565.18190004127	25
2	1829	566.432784338097	26
2	1830	566.551049958634	25
2	1833	567.86022022562	24
2	1837	567.877375195639	25
2	1839	568.815345383852	26
2	1840	569.213121054227	25
2	1844	569.242975913597	26
2	1845	570.478901624771	25
2	1848	572.010034027042	24
2	1852	572.068876901782	25
2	1855	573.679343643876	24
2	1858	575.416958506497	23
2	1861	577.160677954274	22
2	1865	577.197641018321	23
2	1867	577.603286682698	24
2	1869	577.820001534306	25
2	1870	578.809418214391	24
2	1874	579.80383113911	25
2	1879	580.50911259083	24
2	1883	580.749479303365	25
2	1884	582.292001281957	24
2	1888	582.862389802147	25
2	1889	583.646371125149	24
2	1892	585.38508128533	23
2	1896	585.624184069661	24
2	1897	587.085555967035	23
2	1901	587.397607525928	24
2	1903	587.495067268451	25
2	1904	588.805235518607	24
2	1908	589.776698659305	25
2	1909	590.114396457093	24
2	1913	590.592657347568	25
2	1914	591.441499959024	24
2	1918	591.565611761889	25
2	1922	592.317454993846	26
2	1923	593.227315338048	25
2	1927	593.377482290561	26
2	1929	594.409839869617	27
2	1930	594.709686883072	26
2	1934	594.975133548039	27
2	1935	596.386756838764	26
2	1939	596.915964976357	27
2	1940	598.140857528615	26
2	1944	599.434578363189	27
2	1945	599.91521105254	26
2	1949	601.014064967818	27
2	1951	601.187273872291	28
2	1952	601.261080573592	27
2	1956	602.722822472099	28
2	1958	602.832097225016	29
2	1959	602.981571562495	28
2	1963	603.091972869409	29
2	1964	604.899609529879	28
2	1968	605.465176572018	29
2	1969	606.855187116843	28
2	1973	607.533308096511	29
2	1975	607.788845110044	30
2	1976	608.137278384995	29
2	1980	609.298682488903	30
2	1981	609.432154359203	29
2	1985	609.439285739953	30
2	1986	610.875705380645	29
2	1990	611.603182495255	30
2	1991	612.552649296355	29
2	1995	613.339704235295	30
2	1997	614.326654088099	31
2	1998	614.497801225354	30
2	2001	615.978660363426	29
2	2005	616.183405301004	30
2	2006	617.359096963984	29
2	2010	618.572642408149	30
2	2011	618.681625610684	29
2	2015	619.149022098357	30
2	2017	619.291424029294	31
2	2018	619.94089252418	30
2	2022	620.520557803161	31
2	2023	621.502231582721	30
2	2027	622.7345117945	31
2	2028	622.778815253732	30
2	2031	624.282675545943	29
2	2035	625.701488258702	30
2	2037	625.928906028596	31
2	2039	626.072706012774	32
2	2040	626.239291093779	31
2	2044	626.672164475898	32
2	2045	628.096767801699	31
2	2049	628.410950842568	32
2	2050	629.886959140842	31
2	2054	630.473131498242	32
2	2055	631.245733954107	31
2	2059	631.91609312784	32
2	2060	632.770655649623	31
2	2063	634.442547976134	30
2	2066	635.699303213788	29
2	2070	635.74816218942	30
2	2072	636.634499098782	31
2	2074	637.263257553149	32
2	2075	637.536014741568	31
2	2079	638.847950346246	32
2	2080	639.100613717085	31
2	2084	640.182947063457	32
2	2085	640.468427816687	31
2	2089	641.619995462493	32
2	2090	642.370412240086	31
2	2094	642.925880205128	32
2	2096	643.82321310703	33
2	2097	643.896122836975	32
2	2101	645.017831942979	33
2	2102	645.237189690491	32
2	2106	645.422994171131	33
2	2109	647.03453704836	32
2	2113	647.385457491312	33
2	2114	648.374376801496	32
2	2117	649.665653518868	31
2	2121	649.950525261483	32
2	2122	650.920539586154	31
2	2126	652.042938344484	32
2	2127	652.361251687353	31
2	2131	652.911580971822	32
2	2132	654.248084941228	31
2	2136	655.318354017074	32
2	2137	655.496976369341	31
2	2141	655.556858248844	32
2	2143	656.359203216063	33
2	2144	656.862931037602	32
2	2148	657.966730724269	33
2	2149	658.321166675073	32
2	2153	658.788652302602	33
2	2154	659.54474561317	32
2	2158	660.34775459721	33
2	2160	660.497138108172	34
2	2161	660.749517989439	33
2	2164	662.346016919707	32
2	2168	663.907693297025	33
2	2169	663.930556678307	32
2	2173	664.72692973752	33
2	2175	664.93366488521	34
2	2176	665.458174040635	33
2	2179	667.038658410963	32
2	2183	667.349675620454	33
2	2184	668.920788863954	32
2	2188	670.416188131754	33
2	2189	670.706898304541	32
2	2193	670.740046977415	33
2	2194	671.920528741088	32
2	2200	673.131470620065	33
2	2201	673.500008988474	32
2	2204	675.098842119705	31
2	2208	675.107846017305	32
2	2209	676.892893010099	31
2	2212	678.252740646247	30
2	2216	678.374606412084	31
2	2218	678.542650312871	32
2	2220	678.991264453687	33
2	2221	679.814684215468	32
2	2225	680.363659859087	33
2	2226	681.622062183079	32
2	2230	682.153380828533	33
2	2231	683.055036151317	32
2	2235	683.323064485454	33
2	2236	684.307927941253	32
2	2240	684.756118201246	33
2	2241	685.757646748704	32
2	2245	686.287098577702	33
2	2246	687.67851125477	32
2	2249	689.189682341089	31
2	2253	689.27639990449	32
2	2254	691.014518144449	31
2	2258	691.589369150579	32
2	2259	692.388956632746	31
2	2262	693.616379225535	30
2	2266	695.230630228038	31
2	2268	695.302980147139	32
2	2269	695.558865004314	31
2	2273	695.595666100196	32
2	2274	697.48030336993	31
2	2278	698.137294506598	32
2	2279	699.386057735329	31
2	2283	699.841589971578	32
2	2284	701.202766372358	31
2	2289	702.628782803287	30
2	2293	702.927647080881	31
2	2295	703.27321568031	32
2	2296	704.146559319181	31
2	2300	704.961158491012	32
2	2302	705.082985228836	33
2	2304	705.905123344664	34
2	2305	706.007766066772	33
2	2308	707.400581069199	32
2	2312	707.532894447455	33
2	2313	708.635165881088	32
2	2316	710.593658665104	31
2	2320	710.879964301534	32
2	2322	711.109598035228	33
2	2323	711.983077802418	32
2	2326	713.507705303563	31
2	2330	714.013775557475	32
2	2331	714.738643441631	31
2	2335	715.235948928296	32
2	2337	716.243035363826	33
2	2339	716.454494286162	34
2	2340	716.714891741893	33
2	2344	716.726052749331	34
2	2346	717.183230493575	35
2	2347	718.080257790631	34
2	2351	718.698639895688	35
2	2353	719.091818200044	36
2	2354	719.45353478445	35
2	2358	719.762142926293	36
2	2360	720.75467970452	37
2	2361	720.842805029734	36
2	2364	722.74252097579	35
2	2368	723.448447424699	36
2	2369	724.09960335335	35
2	2372	726.038403843811	34
2	2375	727.590944392702	33
2	2379	728.884669069066	34
2	2380	729.233223838268	33
2	2384	730.701268137743	34
2	2385	731.141894288456	33
2	2389	731.204026675068	34
2	2391	732.130380339905	35
2	2392	732.468200950233	34
2	2396	733.15767148547	35
2	2397	733.85802448122	34
2	2400	735.206448610781	33
2	2403	737.096629184021	32
2	2406	738.470057711101	31
2	2410	739.137479692455	32
2	2412	739.879440124076	33
2	2413	740.087862396895	32
2	2417	741.051312349614	33
2	2419	741.246710430876	34
2	2420	741.808107389419	33
2	2424	741.840321722912	34
2	2425	743.269503002151	33
2	2429	743.674287022564	34
2	2430	744.666515589788	33
2	2434	744.945725150769	34
2	2438	745.796922455252	35
2	2439	746.399550142049	34
2	2443	747.543110536033	35
2	2444	748.135504000916	34
2	2450	748.807384557059	35
2	2451	749.438987359687	34
2	2455	750.408822252934	35
2	2457	751.301975717597	36
2	2458	751.415795200414	35
2	2461	752.636878075733	34
2	2465	753.40198315342	35
2	2466	754.151897983908	34
2	2470	754.189822367059	35
2	2471	755.688264145985	34
2	2475	756.610777070029	35
2	2477	756.727790982114	36
2	2479	756.979592668909	37
2	2480	757.406598159954	36
2	2484	758.112362098434	37
2	2485	759.208694684789	36
2	2489	759.839487897922	37
2	2490	761.116604245179	36
2	2494	761.558051380737	37
2	2495	762.454558780142	36
2	2499	762.856121801998	37
2	2500	764.232239121296	36
2	2504	765.713820065983	37
2	2505	766.163092610896	36
2	2508	767.754625637368	35
2	2512	767.792707511539	36
2	2515	769.427005248987	35
2	2519	769.961875976495	36
2	2520	770.784708990068	35
2	2524	771.103179819401	36
2	2526	772.392030734189	37
2	2527	772.521175495446	36
2	2531	773.850788288293	37
2	2532	774.050802959971	36
2	2536	774.959433914458	37
2	2537	775.625069365002	36
2	2540	777.049123959712	35
2	2544	777.158718660367	36
2	2545	778.594720633052	35
2	2549	778.847809990843	36
2	2550	780.581891709849	35
2	2554	780.614508805137	36
2	2555	781.811753222257	35
2	2559	782.458423588623	36
2	2560	783.185553900994	35
2	2563	784.665462266005	34
2	2567	785.572933696482	35
2	2568	786.038647754587	34
2	2572	786.513796075237	35
2	2573	787.918783609293	34
2	2577	788.466045052197	35
2	2579	789.064332483871	36
2	2581	789.373968474728	37
2	2582	789.880090360999	36
2	2586	790.175970263323	37
2	2588	790.275034309537	38
2	2589	791.405273687005	37
2	2592	792.974084015287	36
2	2596	793.066380073494	37
2	2597	794.677271660886	36
2	2601	795.268960160841	37
2	2603	795.469287658659	38
2	2604	796.484227636553	37
2	2608	797.635552575041	38
2	2609	797.91734830337	37
2	2613	798.522705865209	38
2	2614	799.885254198223	37
2	2618	801.499241030852	38
2	2619	801.802979577057	37
2	2623	801.865644179568	38
2	2624	803.776417511053	37
2	2628	804.396291609121	38
2	2630	805.368508336549	39
2	2632	805.387112043861	40
2	2633	805.493691197879	39
2	2637	805.502861416004	40
2	2640	807.299035299107	39
2	2644	807.76004983334	40
2	2646	807.834401134487	41
2	2647	808.683519966252	40
2	2651	809.131288792317	41
2	2652	810.516961782336	40
2	2655	811.968494196333	39
2	2659	812.180069597364	40
2	2660	813.188952737026	39
2	2664	813.87415095227	40
2	2665	814.809074814342	39
2	2669	814.856222413258	40
2	2670	816.250272988066	39
2	2674	816.318720359986	40
2	2676	816.352732428991	41
2	2677	818.043395660356	40
2	2681	819.445593001536	41
2	2682	819.72352885595	40
2	2686	820.245126242379	41
2	2687	820.940990669005	40
2	2691	822.467766456307	41
2	2692	822.601488789082	40
2	2695	824.306319673457	39
2	2699	824.359610072283	40
2	2701	825.193677026633	41
2	2702	825.681104655848	40
2	2706	825.994236855793	41
2	2708	826.005714125759	42
2	2709	827.582561117509	41
2	2712	829.319715790735	40
2	2716	829.861983206186	41
2	2718	830.41130352203	42
2	2719	830.754989040927	41
2	2722	832.734314094023	40
2	2725	834.47638737327	39
2	2728	835.709653943875	38
2	2731	837.463973205448	37
2	2734	838.86283764495	36
2	2738	839.970983605735	37
2	2742	840.246275538071	38
2	2743	840.676542465114	37
2	2746	842.256892279261	36
2	2750	842.372284920205	37
2	2752	842.461551861735	38
2	2754	843.82503721167	39
2	2755	844.256495424272	38
2	2759	845.110333427781	39
2	2761	845.499178054228	40
2	2762	845.846461170451	39
2	2766	846.62130920192	40
2	2768	846.838805231891	41
2	2770	847.594982461253	42
2	2771	847.824327924387	41
2	2774	849.609264958562	40
2	2777	850.845670543896	39
2	2780	852.209682271542	38
2	2784	852.449270831034	39
2	2786	853.276439453381	40
2	2787	853.794854457216	39
2	2791	853.881726682533	40
2	2792	855.000000143522	39
2	2796	855.791369115646	40
2	2798	856.178056042733	41
2	2800	856.587531376921	42
2	2801	856.971664181077	41
2	2805	858.489095066645	42
2	2806	858.814977576495	41
2	2810	859.23712873204	42
2	2812	859.823815285128	43
2	2813	860.312799688526	42
2	2817	860.506211794327	43
2	2818	861.798127468586	42
2	2822	862.3352278602	43
2	2823	863.443168725356	42
2	2827	863.504907650603	43
2	2828	864.937711933538	42
2	2832	865.166476867042	43
2	2833	866.714626446463	42
2	2839	867.409579814428	43
2	2840	868.48355136691	42
2	2844	869.298363193415	43
2	2845	870.298254922688	42
2	2849	871.365504445662	43
2	2850	871.513004796676	42
2	2854	871.97392382216	43
2	2855	873.400327652044	42
2	2859	873.900502129066	43
2	2861	874.66634511101	44
2	2862	874.788823359742	43
2	2866	876.077148968918	44
2	2867	876.339465632572	43
2	2871	876.450209837318	44
2	2872	877.971747984833	43
2	2876	878.053769728266	44
2	2877	879.191473346113	43
2	2881	879.788358652195	44
2	2882	881.096107343121	43
2	2885	882.604703061937	42
2	2889	882.974526017278	43
2	2891	883.432139269248	44
2	2892	884.418275264374	43
2	2896	884.841396658823	44
2	2897	885.921457028857	43
2	2901	886.581120959518	44
2	2902	887.142740202046	43
2	2906	887.60357262276	44
2	2907	888.93116012635	43
2	2911	889.265465041645	44
2	2912	890.583187458388	43
2	2916	891.345058493877	44
2	2917	892.467687417849	43
2	2921	893.308386218218	44
2	2922	893.811971178561	43
2	2926	893.843441846691	44
2	2927	895.228108369655	43
2	2931	895.480264641574	44
2	2933	896.223276463255	45
2	2934	896.455346329606	44
2	2938	897.41625189433	45
2	2939	897.876967213026	44
2	2943	898.095124552883	45
2	2945	898.255849255115	46
2	2947	898.696839344784	47
2	2949	899.163894709695	48
2	2950	899.199574603236	47
2	2953	901.076434382519	46
2	2957	901.571905045713	47
2	2959	902.480174549759	48
2	2960	902.518450556604	47
2	2963	903.722570563761	46
2	2967	904.324302925227	47
2	2968	905.618817973976	46
2	2973	907.41059131818	45
2	2977	908.649593181305	46
2	2978	909.21712638503	45
2	2982	909.251819780822	46
2	2984	910.014797840122	47
2	2986	910.171486346756	48
2	2987	911.023305301834	47
2	2991	911.344469584076	48
2	2992	912.992069661338	47
2	2995	914.27038562065	46
2	2998	915.580658309255	45
2	3002	916.553151982424	46
2	3005	917.573927117977	45
2	3009	918.233417325645	46
2	3010	919.412961949873	45
2	3014	920.741541865637	46
2	3015	920.881889552715	45
2	3019	921.825695626395	46
2	3020	922.406937468144	45
2	3024	923.146079055308	46
2	3026	923.440460293561	47
2	3027	923.629066541324	46
2	3031	923.737189694364	47
2	3032	925.135245586278	46
2	3036	925.49060013	47
2	3040	926.586987733682	48
2	3042	926.757165836258	49
2	3043	927.080617995838	48
2	3047	927.20555742016	49
2	3049	928.739135658214	50
2	3050	929.024357485863	49
2	3054	930.394300893177	50
2	3055	930.419258656631	49
2	3058	932.122414309437	48
2	3062	933.271938546132	49
2	3063	933.553623777906	48
2	3067	933.929882833968	49
2	3069	934.774326333244	50
2	3070	935.054658454562	49
2	3076	935.630592531985	50
2	3077	936.965828794705	49
2	3080	938.3875238833	48
2	3084	939.984533131327	49
2	3085	940.320675007345	48
2	3089	940.531456174652	49
2	3091	941.992788344672	50
2	3092	942.039059331359	49
2	3096	942.537831717031	50
2	3097	943.794616711976	49
2	3101	943.936841015971	50
2	3102	945.225909402499	49
2	3106	946.41346554252	50
2	3107	946.737996558191	49
2	3111	948.026935184499	50
2	3112	948.462018278891	49
2	3116	948.564012667678	50
2	3118	949.454627494663	51
2	3119	949.953946361596	50
2	3122	951.907678787502	49
2	3125	953.162980409245	48
2	3129	953.723104360263	49
2	3131	953.800264595106	50
2	3132	955.072806321549	49
2	3135	956.476001769769	48
2	3139	956.695430509963	49
2	3141	956.773303689981	50
2	3142	958.351866679731	49
2	3146	959.205039509568	50
2	3147	959.96545867836	49
2	3151	961.207434020961	50
2	3152	961.370173555518	49
2	3156	962.38649581202	50
2	3158	962.783085679896	51
2	3159	962.926854808161	50
2	3162	964.213852374161	49
2	3166	964.264804234467	50
2	3168	964.980653227304	51
2	3169	965.882864857743	50
2	3173	966.183632992302	51
2	3174	967.725152818205	50
2	3178	968.522044405269	51
2	3180	969.243054968256	52
2	3182	969.375806150543	53
2	3183	969.45006611226	52
2	3186	971.240382786187	51
2	3190	972.514071355704	52
2	3191	973.206373738217	51
2	3195	973.59157782568	52
2	3197	973.991681907658	53
2	3200	975.027035513426	52
2	3203	976.458153545762	51
2	3207	977.606987102009	52
2	3209	977.798057202989	53
2	3210	978.315584674197	52
2	3213	979.965338992978	51
2	3217	981.090523504264	52
2	3218	981.21159293549	51
2	3222	981.630217532782	52
2	3225	983.031937527748	51
2	3228	984.577648508454	50
2	3232	985.221880881152	51
2	3233	985.798179921041	50
2	3237	986.449201977212	51
2	3238	987.048394622001	50
2	3242	987.14744711222	51
2	3244	988.424126838165	52
2	3245	988.812345226388	51
2	3249	989.508262616652	52
2	3251	989.927269224949	53
2	3252	990.767806236725	52
2	3256	991.018680225924	53
2	3258	991.096808105036	54
2	3259	992.707850772235	53
2	3263	993.240944957073	54
2	3264	994.647719627525	53
2	3268	994.705351278404	54
2	3269	996.361614675354	53
2	3272	997.585391866695	52
2	3276	997.658395093568	53
2	3278	998.046966630125	54
2	3279	999.244120681565	53
2	3282	1001.029686122481	52
2	3286	1002.137414948228	53
2	3288	1002.273047844419	54
2	3289	1002.94765236089	53
2	3293	1003.659628175793	54
2	3294	1004.821708786953	53
2	3298	1005.419948861993	54
2	3299	1006.146483586263	53
2	3303	1006.658409050121	54
2	3305	1007.431275638133	55
2	3306	1007.562066929508	54
2	3310	1008.083491390143	55
2	3312	1008.627587766683	56
2	3313	1009.012620368879	55
2	3317	1009.731923917269	56
2	3318	1010.337793311756	55
2	3322	1010.477163799094	56
2	3323	1011.80471543232	55
2	3327	1012.619193182223	56
2	3328	1013.518968790118	55
2	3332	1013.663601364842	56
2	3333	1015.451411340479	55
2	3337	1016.477179162005	56
2	3338	1016.691247871984	55
2	3341	1018.210843060259	54
2	3345	1019.363323376864	55
2	3347	1019.446741899592	56
2	3348	1019.937779976148	55
2	3351	1021.652062279079	54
2	3355	1022.306024562657	55
2	3356	1023.035766160954	54
2	3359	1024.385512968619	53
2	3362	1025.725646303874	52
2	3366	1025.877323071551	53
2	3368	1026.098075438393	54
2	3370	1026.841381525608	55
2	3371	1027.473808846903	54
2	3375	1028.138196591201	55
2	3377	1028.402996651349	56
2	3378	1029.451701009554	55
2	3382	1029.936130778919	56
2	3383	1030.819121495542	55
2	3386	1032.550592951012	54
2	3390	1033.532950530654	55
2	3392	1033.6319586686	56
2	3393	1033.902510085796	55
2	3396	1035.47055172762	54
2	3400	1036.578523341492	55
2	3401	1036.872567411793	54
2	3405	1037.047395499241	55
2	3407	1037.901291439332	56
2	3408	1038.573497155403	55
2	3412	1040.088167950391	56
2	3413	1040.262662814466	55
2	3417	1041.180421654266	56
2	3419	1041.240227906563	57
2	3420	1041.991994701048	56
2	3424	1042.749579347223	57
2	3425	1043.771268630495	56
2	3429	1044.957235837726	57
2	3430	1045.544905449172	56
2	3433	1047.279920372275	55
2	3437	1048.28789612192	56
2	3439	1048.329657543065	57
2	3440	1048.833021082078	56
2	3444	1049.479669238367	57
2	3446	1049.520985582029	58
2	3448	1050.031886818331	59
2	3449	1050.332824310009	58
2	3453	1050.405046515844	59
2	3455	1051.387146380939	60
2	3456	1051.765166941193	59
2	3460	1052.339829997543	60
2	3461	1053.51963715097	59
2	3465	1054.883055325427	60
2	3466	1055.246100842115	59
2	3470	1055.752469289963	60
2	3472	1056.585333670037	61
2	3473	1057.103082073573	60
2	3477	1057.847398299537	61
2	3478	1058.828631305229	60
2	3482	1059.489981455164	61
2	3483	1060.043624433782	60
2	3487	1060.570848836996	61
2	3488	1061.732830653992	60
2	3492	1062.136467110127	61
2	3493	1063.406508245599	60
2	3497	1063.592849639301	61
2	3498	1064.776211591531	60
2	3502	1065.9674094819	61
2	3503	1066.571927302424	60
2	3507	1067.606487939118	61
2	3508	1068.542642632779	60
2	3512	1069.541143775989	61
2	3513	1070.009240728338	60
2	3517	1070.211709421295	61
2	3518	1071.800152251963	60
2	3522	1072.14254268608	61
2	3523	1073.294938257989	60
2	3527	1073.705359257032	61
2	3528	1074.717808412295	60
2	3532	1074.943278579915	61
2	3533	1076.016115294863	60
2	3536	1077.468078668695	59
2	3540	1078.454623042199	60
2	3541	1078.706034237053	59
2	3545	1080.380190984473	60
2	3546	1080.681712470297	59
2	3552	1081.495756866623	60
2	3554	1081.964127856704	61
2	3555	1081.993206462171	60
2	3559	1082.433771523805	61
2	3561	1082.803641386368	62
2	3562	1083.289507892449	61
2	3566	1083.598886995758	62
2	3567	1084.560548599158	61
2	3570	1086.104991993961	60
2	3574	1086.111094501706	61
2	3576	1087.077305617552	62
2	3578	1087.34088107661	63
2	3579	1087.440616246966	62
2	3582	1088.654828390573	61
2	3586	1088.828502334561	62
2	3587	1090.420851628017	61
2	3590	1092.376404773351	60
2	3593	1094.048026417475	59
2	3597	1094.422065622359	60
2	3598	1095.764843821246	59
2	3601	1097.174843032565	58
2	3605	1097.501921753484	59
2	3606	1098.538166342583	58
2	3609	1100.244526095782	57
2	3612	1101.950904597436	56
2	3616	1102.428356806334	57
2	3618	1102.936970339172	58
2	3620	1103.551040526812	59
2	3621	1103.641458219943	58
2	3625	1104.45004140343	59
2	3627	1105.526709911355	60
2	3628	1105.558669656796	59
2	3632	1106.634838322248	60
2	3633	1106.899790430722	59
2	3637	1107.350332131402	60
2	3639	1107.710125662844	61
2	3640	1108.223416287174	60
2	3644	1108.739050586276	61
2	3646	1108.871932322202	62
2	3647	1109.598902806548	61
2	3650	1110.928336454464	60
2	3653	1112.595315695835	59
2	3657	1112.866401930339	60
2	3659	1112.958661760836	61
2	3661	1113.721289140085	62
2	3662	1114.092538673712	61
2	3665	1115.542858302316	60
2	3668	1117.433178763932	59
2	3671	1118.958206861562	58
2	3675	1119.855912070974	59
2	3676	1120.904042968995	58
2	3679	1122.189763125314	57
2	3685	1123.223858534261	58
2	3687	1123.341249955471	59
2	3688	1123.91021443764	58
2	3692	1124.093979346938	59
2	3693	1125.137161141543	58
2	3697	1125.152843799787	59
2	3699	1125.668100181655	60
2	3700	1126.808739581054	59
2	3704	1127.126967095991	60
2	3705	1128.221379529966	59
2	3708	1129.752839071026	58
2	3712	1130.39289409609	59
2	3713	1131.727316243483	58
2	3717	1132.489141562557	59
2	3718	1132.948171799911	58
2	3723	1134.421608176736	57
2	3727	1136.088319292657	58
2	3728	1136.136548772177	57
2	3731	1137.56570707923	56
2	3734	1139.302749332322	55
2	3738	1140.301452023424	56
2	3740	1140.828432156571	57
2	3741	1140.918405766694	56
2	3745	1141.606586318034	57
2	3746	1142.333670506721	56
2	3750	1143.036987073261	57
2	3752	1143.576409914522	58
2	3753	1143.989074428102	57
2	3759	1144.736086421401	58
2	3762	1145.196589005647	57
2	3766	1146.11297489442	58
2	3768	1146.854477530359	59
2	3769	1147.039168717807	58
2	3773	1147.318000846145	59
2	3775	1147.756254041505	60
2	3776	1148.335246392434	59
2	3779	1149.906063393039	58
2	3782	1151.137187637297	57
2	3786	1151.730485672681	58
2	3788	1152.267639454616	59
2	3789	1152.692655148824	58
2	3792	1154.342941257452	57
2	3795	1156.284727165756	56
2	3799	1156.663926627974	57
2	3801	1157.279388095738	58
2	3802	1157.70247892989	57
2	3805	1159.081576114056	56
2	3808	1160.502281738912	55
2	3812	1161.134396190668	56
2	3814	1161.604107366122	57
2	3816	1161.662855671886	58
2	3817	1161.958421382589	57
2	3821	1162.736629303172	58
2	3822	1163.431989075338	57
2	3826	1163.791591580873	58
2	3827	1165.271271461157	57
2	3831	1165.691931940413	58
2	3833	1165.871975506528	59
2	3834	1166.858081688082	58
2	3838	1166.936197712491	59
2	3840	1167.359236152875	60
2	3842	1168.041431702781	61
2	3843	1168.222116379349	60
2	3846	1169.639938514775	59
2	3850	1169.673548094129	60
2	3852	1169.907063172625	61
2	3854	1170.795141380506	62
2	3855	1171.382276172286	61
2	3859	1171.961221868863	62
2	3860	1173.135413535966	61
2	3864	1173.567110415346	62
2	3865	1174.620803923441	61
2	3869	1175.656365860138	62
2	3871	1176.047469390763	63
2	3872	1176.15681248503	62
2	3876	1176.374312277462	63
2	3877	1177.522166182568	62
2	3880	1178.766887033825	61
2	3883	1180.568779022341	60
2	3886	1182.075377292467	59
2	3890	1183.231602860154	60
2	3891	1183.354759122153	59
2	3895	1183.374349091608	60
2	3896	1185.051629152802	59
2	3899	1186.953321121169	58
2	3902	1188.858829627467	57
2	3906	1190.240785995538	58
2	3907	1190.778362154869	57
2	3911	1192.415196153534	58
2	3913	1192.533315720359	59
2	3914	1192.534163891805	58
2	3918	1193.685127543632	59
2	3919	1194.01304928316	58
2	3923	1194.250229601129	59
2	3924	1195.605301552547	58
2	3928	1195.990040349285	59
2	3930	1196.507749900507	60
2	3931	1197.455705760887	59
2	3935	1198.6723081442	60
2	3936	1199.214429806827	59
2	3940	1200.394775799688	60
2	3941	1200.695630701727	59
2	3944	1202.301105353146	58
2	3947	1204.050658730886	57
2	3951	1204.789545273613	58
2	3953	1205.433988080131	59
2	3954	1205.62241827166	58
2	3958	1206.793648627113	59
2	3960	1206.875878830962	60
2	3961	1207.534817749544	59
2	3965	1207.542935242617	60
2	3969	1208.781380466037	61
2	3970	1209.06864926806	60
2	3973	1210.579517598732	59
2	3977	1211.746055397599	60
2	3978	1212.325329776949	59
2	3982	1212.58942367206	60
2	3984	1213.547070685212	61
2	3985	1213.664642139247	60
2	3989	1214.127870227509	61
2	3991	1214.689352177417	62
2	3993	1214.969111998901	63
2	3994	1215.310709226227	62
2	3998	1215.499597481816	63
2	4000	1215.843291141484	64
2	4001	1217.05483644279	63
2	4005	1217.694451011402	64
2	4006	1218.504831325359	63
2	4009	1219.873139467187	62
2	4012	1221.617768655441	61
2	4016	1222.205420980746	62
2	4018	1222.416286235521	63
2	4020	1222.443998170841	64
2	4021	1223.573251371741	63
2	4024	1224.833406719662	62
2	4027	1226.404134114928	61
2	4031	1226.84512398699	62
2	4033	1228.284240572382	63
2	4034	1228.362481619514	62
2	4038	1229.270998891496	63
2	4039	1229.712999560035	62
2	4043	1230.113126941261	63
2	4044	1231.441010210573	62
2	4048	1232.01076077809	63
2	4050	1232.0698094797	64
2	4051	1233.331109785012	63
2	4055	1233.717860599514	64
2	4056	1235.30277866917	63
2	4060	1235.717886479409	64
2	4062	1236.183948940585	65
2	4063	1236.922810656487	64
2	4067	1237.085345606825	65
2	4069	1238.505600217035	66
2	4070	1238.814942893668	65
2	4074	1239.597964755669	66
2	4076	1239.840012122127	67
2	4077	1240.543900509833	66
2	4081	1241.112394290166	67
2	4083	1241.555745255893	68
2	4085	1241.785641030751	69
2	4088	1242.507289535275	68
2	4091	1243.872028108409	67
2	4094	1245.433472772224	66
2	4097	1246.658396213224	65
2	4101	1246.661085735647	66
2	4103	1246.846283590662	67
2	4104	1248.480743800757	66
2	4108	1248.84343020586	67
2	4109	1249.942647963112	66
2	4115	1250.298641736009	67
2	4117	1250.527848044345	68
2	4118	1251.356823668165	67
2	4121	1252.897981662212	66
2	4125	1252.97522244413	67
2	4127	1253.461423591359	68
2	4128	1254.166966677552	67
2	4132	1254.515586855666	68
2	4133	1256.143793702779	67
2	4137	1256.539620824489	68
2	4138	1257.387413938438	67
2	4142	1258.516446665219	68
2	4144	1258.756536887641	69
2	4146	1259.158992949932	70
2	4147	1259.211814850291	69
2	4151	1260.253296815586	70
2	4152	1260.631111436805	69
2	4156	1262.084738010714	70
2	4157	1262.527825960985	69
2	4161	1263.000995294047	70
2	4163	1263.368829226439	71
2	4164	1263.787011303476	70
2	4168	1263.950169097757	71
2	4169	1265.783849232926	70
2	4173	1266.23900618223	71
2	4174	1267.515206285289	70
2	4177	1269.28974435488	69
2	4180	1270.899270507789	68
2	4183	1272.241610583014	67
2	4187	1272.736283516437	68
2	4188	1273.689457089177	67
2	4191	1275.126489037743	66
2	4195	1275.435828014064	67
2	4197	1275.517452651027	68
2	4198	1277.101018424614	67
2	4202	1277.843771685291	68
2	4203	1278.742994418277	67
2	4206	1280.336962877309	66
2	4210	1280.512870369414	67
2	4212	1281.987263770261	68
2	4213	1282.264818975983	67
2	4217	1282.470902934036	68
2	4219	1283.658320254953	69
2	4221	1283.801787491506	70
2	4222	1283.878081527447	69
2	4226	1284.360749894785	70
2	4228	1285.114419126575	71
2	4230	1285.510476348943	72
2	4231	1285.544179013094	71
2	4235	1285.759821284595	72
2	4236	1287.403324663175	71
2	4241	1288.944694284817	70
2	4244	1290.652211404873	69
2	4248	1290.738913390147	70
2	4250	1291.204729410732	71
2	4251	1291.86832087422	70
2	4255	1292.579399065285	71
2	4257	1293.103857243213	72
2	4258	1293.848054043485	71
2	4261	1295.361632610394	70
2	4264	1297.295153818189	69
2	4267	1299.130134674071	68
2	4271	1299.734417309515	69
2	4272	1300.592863833627	68
2	4276	1300.67798857493	69
2	4278	1301.608027332573	70
2	4280	1301.929101399892	71
2	4281	1302.173603319658	70
2	4285	1303.793627399029	71
2	4286	1303.965435596651	70
2	4290	1305.684965223014	71
2	4291	1305.883444905749	70
2	4295	1306.269251294996	71
2	4296	1307.199970567322	70
2	4299	1308.65839786595	69
2	4303	1310.022679034989	70
2	4304	1310.320096185899	69
2	4308	1310.529783146092	70
2	4311	1311.533309903836	69
2	4315	1312.86440817783	70
2	4317	1313.121376743393	71
2	4318	1313.27473949874	70
2	4322	1313.602443592757	71
2	4324	1314.705892287349	72
2	4325	1315.072821028253	71
2	4329	1315.485999035784	72
2	4330	1316.488420119045	71
2	4334	1316.856605082491	72
2	4335	1318.086761357916	71
2	4339	1318.312890453498	72
2	4340	1319.663691804094	71
2	4343	1320.921380939429	70
2	4347	1321.187214922482	71
2	4350	1322.506739812997	70
2	4354	1323.8419701355	71
2	4355	1323.976528808755	70
2	4359	1324.290463465606	71
2	4361	1324.411839696559	72
2	4363	1324.918371792284	73
2	4364	1325.861573872623	72
2	4368	1326.175235581598	73
2	4369	1327.231602490787	72
2	4372	1328.693870290835	71
2	4375	1330.45919937389	70
2	4379	1330.580498283924	71
2	4381	1331.61841399847	72
2	4382	1332.237809578609	71
2	4386	1332.660632859674	72
2	4387	1333.840912284795	71
2	4391	1333.869668866622	72
2	4394	1335.712855737936	71
2	4398	1336.900995402065	72
2	4399	1337.244706863258	71
2	4402	1338.62201144686	70
2	4406	1339.974356312854	71
2	4407	1339.99738526186	70
2	4411	1340.555812740743	71
2	4412	1341.910883071926	70
2	4415	1343.804065774661	69
2	4418	1345.044986578357	68
2	4421	1346.895759570133	67
2	4424	1348.339411464613	66
2	4428	1348.68981416889	67
2	4429	1350.211083186325	66
2	4433	1350.417656651335	67
2	4434	1352.129075763468	66
2	4438	1352.323968450126	67
2	4440	1352.572651141383	68
2	4442	1353.13426698712	69
2	4443	1353.752416886855	68
2	4447	1353.890157111678	69
2	4449	1354.515541014188	70
2	4450	1355.361750800815	69
2	4454	1355.675398891788	70
2	4456	1356.138468398014	71
2	4457	1357.125083098282	70
2	4461	1357.339972534289	71
2	4462	1358.781691319776	70
2	4466	1358.914703435875	71
2	4468	1360.306644522998	72
2	4469	1360.483896806185	71
2	4473	1360.761398959909	72
2	4475	1360.948656325297	73
2	4477	1361.450146474595	74
2	4478	1361.693880735245	73
2	4482	1361.941001685031	74
2	4483	1362.923597923015	73
2	4487	1364.491895283788	74
2	4488	1364.64776875442	73
2	4492	1365.876174319387	74
2	4493	1366.419658542332	73
2	4497	1367.173076344395	74
2	4498	1367.62607242493	73
2	4501	1368.869094272238	72
2	4505	1368.998598311045	73
2	4507	1369.63736783624	74
2	4508	1370.774453980383	73
2	4511	1372.195128644538	72
2	4514	1373.448847074342	71
2	4518	1373.726374242778	72
2	4519	1374.733986234759	71
2	4523	1376.018642939234	72
2	4524	1376.701202411671	71
2	4527	1378.287668247242	70
2	4531	1379.191205182686	71
2	4533	1379.954412706622	72
2	4534	1379.968191466202	71
2	4538	1381.308505085366	72
2	4539	1381.599973446225	71
2	4543	1381.816227273495	72
2	4545	1382.07672474021	73
2	4546	1383.298170434964	72
2	4553	1385.116710081232	71
2	4556	1386.481282169652	70
2	4560	1387.16351921273	71
2	4561	1387.856745923032	70
2	4564	1389.368336383347	69
2	4568	1389.61984540251	70
2	4570	1390.112478420387	71
2	4571	1390.580540545006	70
2	4574	1392.185657473375	69
2	4580	1392.904390723823	70
2	4582	1393.523917067014	71
2	4583	1393.622486508359	70
2	4587	1394.00568849675	71
2	4589	1394.910750965891	72
2	4590	1395.219438543823	71
2	4593	1397.205543964636	70
2	4597	1398.102057439925	71
2	4599	1398.482700388905	72
2	4600	1398.910244613421	71
2	4604	1399.570496121724	72
2	4606	1400.235656231512	73
2	4607	1400.37940038601	72
2	4611	1400.415063146481	73
2	4612	1402.250530705322	72
2	4616	1402.790977291762	73
2	4617	1403.551395471301	72
2	4621	1403.752681879509	73
2	4623	1405.071552145795	74
2	4625	1405.190072741637	75
2	4626	1405.461599199753	74
2	4630	1406.69554109135	75
2	4632	1406.762423136063	76
2	4633	1406.770216329489	75
2	4637	1407.747637372935	76
2	4638	1408.177565293294	75
2	4642	1409.667516043429	76
2	4643	1410.164092193079	75
2	4647	1410.646781371613	76
2	4648	1412.022068589088	75
2	4652	1412.042964390826	76
2	4653	1413.445560255181	75
2	4656	1415.258849767316	74
2	4659	1416.929598921444	73
2	4663	1417.744344721297	74
2	4665	1418.259629383888	75
2	4666	1418.54615324093	74
2	4670	1419.039886642436	75
2	4671	1420.425268273707	74
2	4675	1420.574362665809	75
2	4677	1420.829781438938	76
2	4679	1421.654015210766	77
2	4681	1421.781550408581	78
2	4682	1421.889396753814	77
2	4685	1423.772451140825	76
2	4689	1423.961859283773	77
2	4690	1425.172286192607	76
2	4694	1425.960084529022	77
2	4696	1426.313580463111	78
2	4697	1426.40428615706	77
2	4701	1426.864615337559	78
2	4702	1428.248968182969	77
2	4706	1429.234655721789	78
2	4707	1429.515832530241	77
2	4711	1430.335122812816	78
2	4712	1431.224853658396	77
2	4715	1432.535724279004	76
2	4719	1433.261228173564	77
2	4721	1433.606614258107	78
2	4722	1433.770448087807	77
2	4725	1435.453245137911	76
2	4729	1436.761623393108	77
2	4730	1437.025385166239	76
2	4733	1438.314960336778	75
2	4737	1438.420941986591	76
2	4739	1439.424266432725	77
2	4740	1440.056646768469	76
2	4744	1440.456940589645	77
2	4745	1442.042471458483	76
2	4749	1442.251877485794	77
2	4751	1442.636125904676	78
2	4752	1443.990740209724	77
2	4756	1445.230982713455	78
2	4757	1445.870312940235	77
2	4761	1446.362400441097	78
2	4763	1446.773917486997	79
2	4764	1447.48345320979	78
2	4767	1448.73376679113	77
2	4771	1449.225204641126	78
2	4772	1450.312778203467	77
2	4776	1450.664510617126	78
2	4778	1451.859380537563	79
2	4779	1452.301656442041	78
2	4783	1454.150340675459	79
2	4784	1454.206064260656	78
2	4788	1455.100011877404	79
2	4789	1456.009801152626	78
2	4792	1457.690354156958	77
2	4796	1458.730777698988	78
2	4797	1459.351801780516	77
2	4801	1459.76134198358	78
2	4802	1460.817922503778	77
2	4805	1462.791767419593	76
2	4809	1462.934183911765	77
2	4811	1463.084506470459	78
2	4812	1464.339323429668	77
2	4816	1465.646726421804	78
2	4817	1466.140455016212	77
2	4821	1466.72999319394	78
2	4822	1467.39707152778	77
2	4826	1467.647246284896	78
2	4828	1468.712929044448	79
2	4829	1468.807657284939	78
2	4833	1468.953394984294	79
2	4835	1469.694641372729	80
2	4836	1470.660202973985	79
2	4840	1470.680350102691	80
2	4841	1472.626774140724	79
2	4845	1473.432882431017	80
2	4847	1474.08605594486	81
2	4848	1474.624014078357	80
2	4852	1475.41205536295	81
2	4853	1475.838422970191	80
2	4857	1476.357689674135	81
2	4858	1477.815504332163	80
2	4862	1478.015077150216	81
2	4863	1479.64051990518	80
2	4866	1481.475390020103	79
2	4869	1482.686201686689	78
2	4873	1483.159273028933	79
2	4875	1483.472134659493	80
2	4876	1483.900875053832	79
2	4880	1483.90574387566	80
2	4882	1484.940449130313	81
2	4883	1485.76594457356	80
2	4887	1486.589389927915	81
2	4888	1487.332406697699	80
2	4892	1487.917241647716	81
2	4893	1489.277527643644	80
2	4896	1490.685634658389	79
2	4900	1490.928359165483	80
2	4902	1490.961633324532	81
2	4905	1492.6665313906	80
2	4909	1493.826641367723	81
2	4911	1494.101215000146	82
2	4912	1494.655071040891	81
2	4916	1495.03561084459	82
2	4917	1496.325879331209	81
2	4921	1496.532722002127	82
2	4922	1497.750176279709	81
2	4926	1497.840251652063	82
2	4928	1498.746529395246	83
2	4929	1499.360934671849	82
2	4933	1499.388091864213	83
2	4934	1501.200723969281	82
2	4938	1501.646131260958	83
2	4940	1502.41553001994	84
2	4941	1503.161163033262	83
2	4944	1505.00263561634	82
2	4948	1506.231752522132	83
2	4949	1506.616488710508	82
2	4953	1507.191792520093	83
2	4954	1507.858574363865	82
2	4957	1509.35885141892	81
2	4960	1511.185537906826	80
2	4964	1511.447585461332	81
2	4965	1512.651906531767	80
2	4969	1513.413933470956	81
2	4970	1514.145416479648	80
2	4974	1515.001116486212	81
2	4975	1515.895868383438	80
2	4978	1517.400431453713	79
2	4982	1518.466272087383	80
2	4983	1518.718817529172	79
2	4987	1519.057612037507	80
2	4989	1519.228940235042	81
2	4990	1519.932240410798	80
2	4994	1520.597766218855	81
2	4996	1521.050273296111	82
2	4997	1521.421230924778	81
2	5000	1523.353286076427	80
2	5006	1524.787337704025	81
2	5007	1525.051681491077	80
2	5011	1526.262540786054	81
2	5012	1526.469581827797	80
2	5016	1527.368242459049	81
2	5017	1528.30042565418	80
2	5021	1529.27747074099	81
2	5022	1529.937086901717	80
2	5026	1530.215489360039	81
2	5028	1530.469562939051	82
2	5030	1531.211854176485	83
2	5031	1531.709996206217	82
2	5035	1532.295977282457	83
2	5036	1533.657948423267	82
2	5039	1535.044911698342	81
2	5044	1536.352948559911	80
2	5048	1536.714503996345	81
2	5049	1538.092859085553	80
2	5052	1539.555742401161	79
2	5055	1541.297836800196	78
2	5059	1541.902937497451	79
2	5061	1542.744436822503	80
2	5062	1543.01748628942	79
2	5066	1543.266011967647	80
2	5068	1543.682430413775	81
2	5069	1544.73759777853	80
2	5073	1546.432824150122	81
2	5074	1546.436079492324	80
2	5078	1546.634032045976	81
2	5080	1547.121941383388	82
2	5081	1547.782638589569	81
2	5085	1548.306422802326	82
2	5086	1549.772368399516	81
2	5090	1549.846461604842	82
2	5092	1550.33573545379	83
2	5093	1551.370275999509	82
2	5097	1551.601580568287	83
2	5099	1552.4724123792	84
2	5100	1552.791149960734	83
2	5104	1553.1476594988	84
2	5106	1553.626467806148	85
2	5108	1554.498449367503	86
2	5109	1554.583734526575	85
2	5113	1555.504729860674	86
2	5115	1555.887414465972	87
2	5116	1555.964256637633	86
2	5119	1557.541845246121	85
2	5123	1557.638840445888	86
2	5125	1557.952859104254	87
2	5127	1558.322990996431	88
2	5129	1558.391180704514	89
2	5130	1559.052724716156	88
2	5134	1559.132377452103	89
2	5136	1560.482697653567	90
2	5137	1560.932591262548	89
2	5141	1561.725382969177	90
2	5142	1562.742295164331	89
2	5146	1563.506521531587	90
2	5147	1564.20815251404	89
2	5150	1565.459468310974	88
2	5154	1566.329775184264	89
2	5156	1566.454581176613	90
2	5158	1566.696501960484	91
2	5159	1567.40979432398	90
2	5163	1567.85745758699	91
2	5164	1569.287343540876	90
2	5167	1570.940379082872	89
2	5171	1571.155604219397	90
2	5172	1572.594467513724	89
2	5176	1573.097152435767	90
2	5177	1574.250122753433	89
2	5180	1575.708806964285	88
2	5184	1575.754109858171	89
2	5185	1577.463637662581	88
2	5188	1579.247089695646	87
2	5192	1579.377289229516	88
2	5194	1580.003008395234	89
2	5196	1580.303759252052	90
2	5197	1580.769078698656	89
2	5201	1582.29913709872	90
2	5202	1582.658446029848	89
2	5205	1584.213800314157	88
2	5209	1585.816539626551	89
2	5210	1585.894465148165	88
2	5214	1586.396082352246	89
2	5215	1587.411123933732	88
2	5219	1588.170234405538	89
2	5220	1589.086995159737	88
2	5224	1589.506989015699	89
2	5226	1590.027957480213	90
2	5227	1591.052187760635	89
2	5230	1592.264391793213	88
2	5234	1592.74706542184	89
2	5236	1592.90287701356	90
2	5237	1593.949162017084	89
2	5241	1594.063526173601	90
2	5242	1595.791561849132	89
2	5246	1596.433102056985	90
2	5248	1596.570961246579	91
2	5249	1597.786085398212	90
2	5252	1599.763129805118	89
2	5255	1601.745274021007	88
2	5259	1602.522829838632	89
2	5261	1602.755524183566	90
2	5263	1602.784156854818	91
2	5266	1603.538413088672	90
2	5269	1605.377484190367	89
2	5273	1605.595640842544	90
2	5274	1607.204657194666	89
2	5278	1607.227775845103	90
2	5280	1607.250902372356	91
2	5281	1608.428499091505	90
2	5285	1609.264933192855	91
2	5287	1609.592162385183	92
2	5288	1610.315159270069	91
2	5291	1612.217561728409	90
2	5295	1612.7073714389	91
2	5296	1613.803712387285	90
2	5299	1615.29261190807	89
2	5303	1615.861817375936	90
2	5305	1616.110983002829	91
2	5307	1616.732140095702	92
2	5308	1616.84170244643	91
2	5311	1618.280388138159	90
2	5315	1619.026146156591	91
2	5317	1619.458544579046	92
2	5319	1619.594176173417	93
2	5321	1619.725824514909	94
2	5322	1620.227685070126	93
2	5326	1621.481265744323	94
2	5327	1621.550712896785	93
2	5331	1622.715801984682	94
2	5332	1622.890501244454	93
2	5336	1623.750463166721	94
2	5338	1623.891841223252	95
2	5339	1624.226163388131	94
2	5342	1625.859245893447	93
2	5346	1626.312879676163	94
2	5347	1627.460335394269	93
2	5351	1627.811461586731	94
2	5353	1629.306034857306	95
2	5354	1629.340449869348	94
2	5358	1630.619842367444	95
2	5360	1630.750063316054	96
2	5361	1630.836044913059	95
2	5364	1632.697726488201	94
2	5368	1632.836452280526	95
2	5370	1633.844054061971	96
2	5371	1633.938799595548	95
2	5374	1635.577433577081	94
2	5377	1637.064129791496	93
2	5381	1637.588474505275	94
2	5383	1637.931473912731	95
2	5385	1638.668959315061	96
2	5386	1638.875523534504	95
2	5390	1639.749198150555	96
2	5391	1640.417278418591	95
2	5395	1640.929460489241	96
2	5396	1642.295842984406	95
2	5400	1643.010739650249	96
2	5401	1644.084423999762	95
2	5404	1645.857608914276	94
2	5408	1646.760539707387	95
2	5409	1647.172921974113	94
2	5412	1648.744924279762	93
2	5415	1649.978283836407	92
2	5419	1650.138808215346	93
2	5421	1651.378556306381	94
2	5422	1651.659231492778	93
2	5426	1651.719427453097	94
2	5427	1653.003481531417	93
2	5431	1654.29032264642	94
2	5432	1654.812629465474	93
2	5436	1656.200879579455	94
2	5437	1656.556913302927	93
2	5441	1656.949772123976	94
2	5443	1657.017516656417	95
2	5444	1657.977301420732	94
2	5448	1658.964798529464	95
2	5450	1659.073161929685	96
2	5452	1659.12581177213	97
2	5453	1659.463676473028	96
2	5457	1660.598667059115	97
2	5458	1660.781720415032	96
2	5461	1662.133728263988	95
2	5466	1663.66385164903	94
2	5470	1664.997585959154	95
2	5471	1665.186002805545	94
2	5475	1665.738031603685	95
2	5477	1666.43666099671	96
2	5478	1667.152653793707	95
2	5481	1668.819392245352	94
2	5484	1670.336888655737	93
2	5488	1670.971896816718	94
2	5490	1671.100789838899	95
2	5491	1671.597552881665	94
2	5495	1671.913080925802	95
2	5497	1672.763367964861	96
2	5498	1673.128924042448	95
2	5502	1674.00243511144	96
2	5504	1674.098219840949	97
2	5505	1674.854707355514	96
2	5508	1676.337939910121	95
2	5512	1676.906557701097	96
2	5513	1678.040404815688	95
2	5517	1678.099586100727	96
2	5518	1680.038772370382	95
2	5522	1680.345282948542	96
2	5524	1680.42297046673	97
2	5525	1681.300447758375	96
2	5529	1681.448658324927	97
2	5530	1682.644112108363	96
2	5534	1683.518275981213	97
2	5535	1684.35465968111	96
2	5539	1685.322191739249	97
2	5540	1685.742396308011	96
2	5544	1687.08328117888	97
2	5545	1687.425816491148	96
2	5549	1688.292316158674	97
2	5550	1688.982971379249	96
2	5554	1689.295949816494	97
2	5555	1690.822424408509	96
2	5559	1692.385037458489	97
2	5561	1692.583341079862	98
2	5562	1692.668841552636	97
2	5566	1693.954385630211	98
2	5567	1694.38498027706	97
2	5571	1694.634320791257	98
2	5573	1695.501305011296	99
2	5575	1695.705237936358	100
2	5577	1695.902973982734	101
2	5578	1696.112302903733	100
2	5581	1697.71444222433	99
2	5585	1698.870032451377	100
2	5586	1699.155412593572	99
2	5589	1700.646930902167	98
2	5592	1702.223381322897	97
2	5595	1703.733924119449	96
2	5599	1704.083440158345	97
2	5601	1704.691080890694	98
2	5603	1704.862753345965	99
2	5605	1705.192718219586	100
2	5606	1705.406352966553	99
2	5610	1705.707535174602	100
2	5611	1707.213505904278	99
2	5614	1709.047266449681	98
2	5618	1709.462479807716	99
2	5619	1710.590088276094	98
2	5623	1710.930224653585	99
2	5624	1712.08597623547	98
2	5628	1712.565250048514	99
2	5629	1713.860208092904	98
2	5633	1713.953915219126	99
2	5634	1715.596532678319	98
2	5638	1715.91437516038	99
2	5640	1716.161356808402	100
2	5641	1717.414916167682	99
2	5645	1717.948066692956	100
2	5646	1718.887935404381	99
2	5650	1719.97774469187	100
2	5651	1720.351778824529	99
2	5655	1720.400322438536	100
2	5656	1722.156551781757	99
2	5660	1722.565384277084	100
2	5661	1723.431718013151	99
2	5664	1725.157487395494	98
2	5668	1725.366114957554	99
2	5669	1727.043940893463	98
2	5675	1727.41711506084	99
2	5677	1727.993570036172	100
2	5679	1728.086441110716	101
2	5680	1728.925277213468	100
2	5684	1729.834901526675	101
2	5685	1730.2462189055	100
2	5689	1731.639774403693	101
2	5690	1731.784934076383	100
2	5694	1732.22843224052	101
2	5695	1733.098204540177	100
2	5698	1734.872399690649	99
2	5702	1735.18489502995	100
2	5704	1735.332576732083	101
2	5705	1736.211267510517	100
2	5708	1737.817840114138	99
2	5712	1737.937409375289	100
2	5714	1739.129314170308	101
2	5715	1739.361635237648	100
2	5719	1740.000254654811	101
2	5721	1740.577848424338	102
2	5722	1740.71346137756	101
2	5725	1742.391505605071	100
2	5729	1742.637011865727	101
2	5730	1743.9895428854	100
2	5734	1744.443615376516	101
2	5736	1745.161349668805	102
2	5737	1745.861434660382	101
2	5741	1745.897080729665	102
2	5742	1747.118855851232	101
2	5746	1747.952777919486	102
2	5747	1748.451425103559	101
2	5750	1750.254153705104	100
2	5754	1750.759813838143	101
2	5756	1751.475900809223	102
2	5757	1751.728659664183	101
2	5761	1751.891401731808	102
2	5762	1752.966028664908	101
2	5766	1753.360935595887	102
2	5767	1754.890573456599	101
2	5773	1755.096333985831	102
2	5775	1755.967296723546	103
2	5776	1756.423929337314	102
2	5779	1758.064475539601	101
2	5782	1759.622992427549	100
2	5786	1760.612322311231	101
2	5787	1760.863710241853	100
2	5791	1760.904505043231	101
2	5793	1761.259768479746	102
2	5796	1762.741984664178	101
2	5800	1763.30214785427	102
2	5802	1763.897830246984	103
2	5804	1764.270481756322	104
2	5805	1764.579544011964	103
2	5810	1765.936333998008	102
2	5813	1767.736726372218	101
2	5817	1767.906904227533	102
2	5819	1768.349290228128	103
2	5821	1768.679468103306	104
2	5822	1769.131885538338	103
2	5826	1770.220577498887	104
2	5828	1770.283357753931	105
2	5829	1770.440500081232	104
2	5833	1770.835052095324	105
2	5834	1771.937447815849	104
2	5837	1773.297643927014	103
2	5841	1773.711198810732	104
2	5843	1773.723799280428	105
2	5846	1774.501121851517	104
2	5849	1776.360644028796	103
2	5853	1776.575305551895	104
2	5854	1778.056388247287	103
2	5858	1778.471118722317	104
2	5860	1779.281521377473	105
2	5861	1779.482639530202	104
2	5865	1780.227911097423	105
2	5867	1780.233252461867	106
2	5869	1780.472700737248	107
2	5871	1781.023479231009	108
2	5872	1781.091351350112	107
2	5876	1782.03415235152	108
2	5878	1783.013104532243	109
2	5879	1783.046099328337	108
2	5883	1783.782731108509	109
2	5884	1784.887442943914	108
2	5887	1786.698920987448	107
2	5890	1788.394849013252	106
2	5894	1788.934125048976	107
2	5895	1790.053376388265	106
2	5899	1791.091942350338	107
2	5901	1791.139452347474	108
2	5903	1791.371726295915	109
2	5905	1791.405451225924	110
2	5906	1791.798462348333	109
2	5909	1793.577996191843	108
2	5912	1794.989648656449	107
2	5916	1795.495895291725	108
2	5917	1796.264832348837	107
2	5921	1796.409613308217	108
2	5922	1797.534617141908	107
2	5925	1798.79451666688	106
2	5929	1799.109523538774	107
2	5931	1799.264843806364	108
2	5933	1799.307481711004	109
2	5935	1799.573777249624	110
2	5936	1800.25140372598	109
2	5940	1800.300422808175	110
2	5942	1800.782538547378	111
2	5943	1802.189281535423	110
2	5947	1802.436075176213	111
2	5948	1804.043165749027	110
2	5952	1804.223272309486	111
2	5953	1805.589451301186	110
2	5959	1806.774793780689	111
2	5960	1807.434549809894	110
2	5964	1807.750100916412	111
2	5966	1809.279328478535	112
2	5967	1809.401391251287	111
2	5971	1809.561967213712	112
2	5972	1811.384222940444	111
2	5976	1811.510780882298	112
2	5977	1812.994385377779	111
2	5981	1813.7497076297	112
2	5982	1814.316597417831	111
2	5987	1816.233155680909	110
2	5991	1816.315546695523	111
2	5992	1817.926751247696	110
2	5996	1819.293007108324	111
2	5997	1819.78182039456	110
2	6001	1820.399278726755	111
2	6002	1821.512531247637	110
2	6006	1822.367026315842	111
2	6007	1823.282862025774	110
2	6011	1823.374336338141	111
2	6013	1824.013352996356	112
2	6014	1824.625318751759	111
2	6018	1825.865478827782	112
2	6019	1826.036009374722	111
2	6023	1826.764358626433	112
2	6024	1827.83542136149	111
2	6028	1828.904136985777	112
2	6029	1829.143560937694	111
2	6033	1830.879435794447	112
2	6034	1831.102957389964	111
2	6038	1832.558497756964	112
2	6039	1832.916185130825	111
2	6043	1833.098639702154	112
2	6044	1834.168007403513	111
2	6048	1835.778412253743	112
2	6049	1836.098464643856	111
2	6053	1836.924815269809	112
2	6054	1837.774950296146	111
2	6057	1839.211380213027	110
2	6060	1840.590713319455	109
2	6064	1841.182817820917	110
2	6065	1842.234114577894	109
2	6069	1843.820310588748	110
2	6070	1844.10316578531	109
2	6074	1844.875560893562	110
2	6076	1845.263150947818	111
2	6078	1845.82225814794	112
2	6079	1845.923481519793	111
2	6083	1846.333980570292	112
2	6084	1847.5380455953	111
2	6087	1848.881218395468	110
2	6091	1849.290771517337	111
2	6093	1850.047294728096	112
2	6094	1850.751314588536	111
2	6098	1850.827623763838	112
2	6100	1851.493792397318	113
2	6101	1852.587251771328	112
2	6105	1852.642039524747	113
2	6106	1854.337667814915	112
2	6109	1856.116899605368	111
2	6113	1856.290369510799	112
2	6114	1857.383394662936	111
2	6117	1858.683723637176	110
2	6120	1859.915904083749	109
2	6123	1861.775273917516	108
2	6126	1863.696114203979	107
2	6130	1864.232265609079	108
2	6131	1865.116865662572	107
2	6134	1866.689114761253	106
2	6138	1867.594482954083	107
2	6139	1868.004635480319	106
2	6142	1869.995438688521	105
2	6146	1870.302482205918	106
2	6148	1870.873904335378	107
2	6149	1871.91946784993	106
2	6153	1871.963397415047	107
2	6155	1872.443482468287	108
2	6156	1873.639544521732	107
2	6160	1874.751737800434	108
2	6161	1875.190172695456	107
2	6165	1875.273645972572	108
2	6166	1876.599122151634	107
2	6170	1876.705211136161	108
2	6171	1878.382635786658	107
2	6175	1879.870295707615	108
2	6176	1880.281201262301	107
2	6179	1882.126555885649	106
2	6183	1882.317659757516	107
2	6185	1883.1716797119	108
2	6186	1883.946235676012	107
2	6189	1885.912712283707	106
2	6193	1886.45911352461	107
2	6194	1887.903746561981	106
2	6198	1888.3244535919	107
2	6200	1888.683620065549	108
2	6201	1889.703718628078	107
2	6205	1890.333788818436	108
2	6207	1890.358015066021	109
2	6208	1890.928467078223	108
2	6212	1891.382111263969	109
2	6214	1891.615813793386	110
2	6215	1892.345501595265	109
2	6219	1893.077527589266	110
2	6221	1893.56594868919	111
2	6223	1893.796928048284	112
2	6224	1893.923375034048	111
2	6227	1895.4174520296	110
2	6231	1895.727231442334	111
2	6233	1896.584918568955	112
2	6235	1896.652493032511	113
2	6236	1896.772117514252	112
2	6240	1897.844737516702	113
2	6241	1898.602695841245	112
2	6245	1900.336935998504	113
2	6246	1900.481238424308	112
2	6250	1902.07251303893	113
2	6251	1902.436358950935	112
2	6254	1903.930229154877	111
2	6258	1904.211076514976	112
2	6259	1905.647051454797	111
2	6263	1907.141956616367	112
2	6264	1907.40074313087	111
2	6267	1908.729121473707	110
2	6271	1909.922991031212	111
2	6272	1910.55029811421	110
2	6275	1912.050648734994	109
2	6279	1912.117779687001	110
2	6281	1913.119779813668	111
2	6282	1913.716060860172	110
2	6286	1913.959697212456	111
2	6288	1914.613490694	112
2	6290	1914.801046492696	113
2	6292	1914.829850969809	114
2	6293	1914.92739536231	113
2	6297	1915.682982070775	114
2	6298	1916.153954338744	113
2	6302	1916.871425734775	114
2	6303	1917.398048411213	113
2	6307	1917.912978061243	114
2	6308	1918.677495410942	113
2	6311	1920.156506235242	112
2	6314	1922.074941813476	111
2	6318	1923.412257293482	112
2	6319	1923.506473806962	111
2	6323	1923.928565331259	112
2	6325	1924.455621169757	113
2	6326	1925.005489408128	112
2	6330	1925.695204247926	113
2	6331	1926.839821061395	112
2	6334	1928.729249488093	111
2	6337	1930.469266139805	110
2	6341	1930.595256418185	111
2	6342	1931.867695289381	110
2	6346	1932.385683928314	111
2	6347	1933.828230473861	110
2	6350	1935.411451303489	109
2	6354	1936.205438022179	110
2	6356	1936.522203245312	111
2	6358	1936.912998943005	112
2	6359	1937.183679105617	111
2	6363	1937.515805735933	112
2	6365	1937.521993660839	113
2	6367	1937.675781870718	114
2	6369	1938.122616706188	115
2	6370	1938.796728134617	114
2	6373	1940.779980471074	113
2	6377	1941.872473852131	114
2	6378	1942.161435113191	113
2	6381	1943.671849919758	112
2	6385	1943.809438699775	113
2	6386	1944.978132354743	112
2	6390	1945.415137351618	113
2	6392	1945.776880639594	114
2	6394	1946.08646627023	115
2	6395	1946.538552011266	114
2	6398	1948.277132331669	113
2	6402	1949.300168071179	114
2	6404	1949.468027040871	115
2	6405	1949.823472738355	114
2	6409	1950.332194586064	115
2	6411	1950.429882198401	116
2	6412	1951.755216168142	115
2	6416	1951.79975240684	116
2	6417	1953.530675112731	115
2	6423	1954.879141063257	116
2	6424	1955.039521155409	115
2	6427	1956.692694407977	114
2	6430	1957.949114187524	113
2	6434	1958.017379675136	114
2	6435	1959.436463068515	113
2	6439	1959.704601794798	114
2	6441	1959.824935393159	115
2	6443	1960.057930828633	116
2	6445	1960.414969493942	117
2	6447	1961.00098154391	118
2	6448	1961.179151186995	117
2	6451	1962.554971172564	116
2	6455	1963.421700380205	117
2	6457	1963.629068901391	118
2	6458	1964.004897319615	117
2	6462	1964.073084969994	118
2	6464	1964.829435111426	119
2	6465	1965.81116046188	118
2	6469	1967.074463316807	119
2	6470	1967.747539650179	118
2	6473	1969.366106920592	117
2	6477	1969.988611709045	118
2	6478	1971.092236382417	117
2	6482	1971.426396001444	118
2	6484	1972.743845354466	119
2	6485	1973.022413306586	118
2	6488	1974.747159579299	117
2	6494	1976.523406516696	118
2	6495	1976.718756908081	117
2	6499	1976.983728347528	118
2	6501	1977.885973246933	119
2	6502	1978.20410754466	118
2	6506	1979.415463622526	119
2	6507	1979.83818249581	118
2	6510	1981.525205755323	117
2	6514	1981.929962396998	118
2	6515	1983.204427498482	117
2	6519	1983.628324555466	118
2	6521	1983.902628220671	119
2	6522	1985.108544903338	118
2	6525	1986.426537556849	117
2	6529	1986.581411910949	118
2	6530	1988.132475128673	117
2	6534	1988.410717263153	118
2	6536	1989.573789949942	119
2	6537	1990.070777973995	118
2	6541	1990.219162249061	119
2	6543	1991.564833788285	120
2	6544	1991.60247342968	119
2	6547	1993.217459994085	118
2	6551	1993.242672861843	119
2	6553	1993.735038568978	120
2	6554	1994.838946078434	119
2	6557	1996.339035736113	118
2	6561	1996.772132891249	119
2	6562	1997.920595910861	118
2	6566	1999.309097773109	119
2	6567	1999.679478270835	118
2	6571	2000.189041983433	119
2	6572	2000.964408307052	118
2	6576	2001.270928371919	119
2	6577	2002.801101867384	118
2	6581	2003.861380758339	119
2	6582	2004.284735617689	118
2	6585	2005.632371565043	117
2	6589	2005.654384774857	118
2	6591	2005.74355867866	119
2	6592	2007.393916702918	118
2	6597	2009.134979301593	117
2	6600	2010.922787149898	116
2	6605	2012.347228586017	115
2	6609	2012.616241894155	116
2	6610	2013.561800267077	115
2	6613	2014.83732015667	114
2	6617	2015.321019403407	115
2	6619	2016.203591903492	116
2	6620	2016.458534811339	115
2	6624	2016.513003183524	116
2	6626	2017.584713202828	117
2	6628	2018.136487103519	118
2	6629	2018.428111235886	117
2	6632	2019.643479973911	116
2	6636	2020.048480261944	117
2	6638	2020.957287285192	118
2	6640	2021.102737673019	119
2	6641	2021.274399462058	118
2	6645	2021.589673923695	119
2	6647	2022.584225228717	120
2	6648	2022.828868296458	119
2	6651	2024.057145414403	118
2	6655	2024.415056597312	119
2	6659	2024.90773471076	120
2	6661	2025.014017757775	121
2	6662	2025.538149448945	120
2	6666	2025.878413325989	121
2	6668	2026.983832535617	122
2	6669	2027.486756932451	121
2	6673	2027.492994954205	122
2	6676	2029.426703930548	121
2	6679	2030.628254489316	120
2	6683	2031.559564525501	121
2	6684	2031.831267151883	120
2	6688	2032.474599471558	121
2	6689	2033.668290877057	120
2	6692	2035.256374592794	119
2	6696	2035.720437636696	120
2	6697	2036.648275286419	119
2	6700	2038.092951076379	118
2	6704	2038.47703092783	119
2	6706	2039.213697682501	120
2	6708	2039.228494444504	121
2	6709	2039.371517302556	120
2	6713	2039.390143133453	121
2	6714	2041.351584343327	120
2	6717	2043.258757598785	119
2	6721	2043.581572632186	120
2	6722	2045.160319169884	119
2	6726	2046.284532669598	120
2	6727	2046.906303549459	119
2	6730	2048.197434230981	118
2	6733	2049.758731902478	117
2	6737	2050.839535993495	118
2	6738	2051.298508680699	117
2	6742	2051.402476865628	118
2	6744	2051.645638374825	119
2	6746	2052.423882728837	120
2	6748	2052.451039580335	121
2	6749	2052.67369005279	120
2	6753	2053.645260981826	121
2	6754	2054.192691747	120
2	6758	2055.070491734843	121
2	6759	2056.061868738843	120
2	6763	2056.402679495883	121
2	6765	2056.667273216481	122
2	6766	2057.75857725711	121
2	6770	2058.972987088812	122
2	6772	2059.062383612482	123
2	6774	2059.205142223489	124
2	6775	2059.225083824335	123
2	6778	2060.537710479921	122
2	6782	2061.913223447775	123
2	6783	2062.193706591701	122
2	6787	2062.713977580799	123
2	6789	2062.960217818373	124
2	6791	2063.148827783681	125
2	6792	2063.623107252171	124
2	6796	2063.942169635845	125
2	6797	2065.226424072584	124
2	6800	2066.660173643468	123
2	6804	2067.854581894062	124
2	6806	2068.11184134215	125
2	6807	2068.636030833697	124
2	6810	2070.442817825912	123
2	6814	2070.504777177423	124
2	6816	2070.942252383235	125
2	6817	2071.662746212533	124
2	6821	2072.912997290946	125
2	6822	2073.572304979613	124
2	6826	2073.752789237459	125
2	6827	2075.024510219408	124
2	6831	2075.117097975021	125
2	6832	2076.386056627421	124
2	6835	2078.362512100203	123
2	6839	2079.959818692306	124
2	6840	2080.241236654198	123
2	6844	2080.447589470408	124
2	6845	2081.658848904906	123
2	6849	2081.999872024237	124
2	6851	2082.302291288829	125
2	6852	2082.938063008426	124
2	6856	2083.703812773527	125
2	6857	2084.498031024909	124
2	6860	2086.491449102661	123
2	6864	2087.16441706409	124
2	6865	2087.724215921289	123
2	6869	2087.728044959471	124
2	6870	2089.506294599822	123
2	6874	2089.941619821739	124
2	6876	2090.270782574935	125
2	6878	2090.723732466005	126
2	6879	2090.920397155261	125
2	6883	2091.82987865996	126
2	6884	2092.768401474407	125
2	6888	2094.447294852107	126
2	6889	2094.628448756872	125
2	6892	2095.972530316277	124
2	6896	2097.394308793089	125
2	6897	2097.426046020998	124
2	6901	2097.637258609964	125
2	6902	2098.702948137461	124
2	6906	2098.908778475093	125
2	6908	2098.919115271568	126
2	6910	2100.148770913707	127
2	6911	2100.64874784471	126
2	6915	2101.790328138895	127
2	6916	2102.262337056077	126
2	6920	2102.74466704479	127
2	6922	2102.884186379894	128
2	6924	2103.325129375146	129
2	6925	2103.926403287514	128
2	6928	2105.279346862337	127
2	6932	2105.931271507642	128
2	6933	2106.486580768502	127
2	6937	2106.590055532991	128
2	6938	2107.892697997293	127
2	6942	2107.979685265141	128
2	6945	2109.340681051551	127
2	6949	2109.469580678791	128
2	6951	2109.77799112666	129
2	6952	2110.9925274766	128
2	6955	2112.967315167463	127
2	6959	2113.181638142674	128
2	6961	2113.812164550944	129
2	6962	2114.878111812188	128
2	6965	2116.305760740949	127
2	6969	2116.539604593548	128
2	6971	2117.377452134749	129
2	6972	2118.162704463018	128
2	6976	2118.413377863544	129
2	6977	2119.387109018018	128
2	6981	2120.255662632393	129
2	6982	2120.854553936136	128
2	6986	2122.541499613791	129
2	6987	2122.763855008123	128
2	6990	2124.347450235946	127
2	6994	2124.93170200108	128
2	6996	2125.638082593649	129
2	6997	2125.892688628001	128
2	7001	2125.994860424714	129
2	7002	2127.275873520126	128
2	7006	2127.603030373152	129
2	7007	2128.579679541749	128
2	7011	2129.238412100935	129
2	7012	2130.451100617175	128
2	7016	2130.736231082309	129
2	7017	2132.384910867822	128
2	7021	2132.875794444835	129
2	7023	2133.19338823361	130
2	7025	2133.47579872272	131
2	7026	2133.691003314864	130
2	7030	2134.928040014332	131
2	7031	2135.205219644394	130
2	7035	2137.089581390838	131
2	7036	2137.175226076406	130
2	7040	2137.211139631968	131
2	7042	2137.458328235148	132
2	7043	2138.469222067383	131
2	7047	2138.513717035403	132
2	7048	2139.925599414383	131
2	7052	2141.428460053724	132
2	7053	2141.469426915136	131
2	7056	2143.039667919737	130
2	7059	2144.670691611332	129
2	7063	2146.236461726129	130
2	7065	2146.422071721425	131
2	7066	2146.558220841077	130
2	7070	2147.458004646475	131
2	7071	2148.406813611177	130
2	7075	2148.938884262846	131
2	7076	2150.059299856139	130
2	7080	2150.888323277007	131
2	7081	2151.324226594058	130
2	7085	2151.340077080292	131
2	7086	2153.002760170114	130
2	7090	2153.702212932952	131
2	7091	2154.983554284175	130
2	7094	2156.79558822037	129
2	7097	2158.02790830144	128
2	7101	2159.239760249253	129
2	7103	2159.463638819654	130
2	7104	2159.472571339359	129
2	7108	2159.634690662902	130
2	7109	2161.098820353573	129
2	7113	2161.60649519425	130
2	7115	2162.479293068645	131
2	7116	2162.513985075703	130
2	7120	2162.899563150357	131
2	7121	2164.179255965253	130
2	7124	2165.646520676551	129
2	7128	2165.917946253562	130
2	7130	2167.128844928827	131
2	7131	2167.233686070418	130
2	7135	2167.340140290719	131
2	7137	2168.866493747128	132
2	7138	2169.119261171756	131
2	7142	2170.132770347149	132
2	7143	2170.922443925677	131
2	7148	2172.548480898416	130
2	7152	2173.555652055138	131
2	7154	2173.602921391829	132
2	7155	2173.781895198761	131
2	7159	2175.281173343901	132
2	7160	2175.685741174868	131
2	7164	2175.948449935017	132
2	7167	2177.212961383625	131
2	7171	2177.827475861716	132
2	7172	2178.89187929993	131
2	7175	2180.3740544985	130
2	7178	2181.866720777652	129
2	7182	2182.661033307139	130
2	7183	2183.479519274733	129
2	7186	2184.746153550125	128
2	7189	2186.046728012986	127
2	7192	2187.872345792405	126
2	7196	2188.600463057973	127
2	7197	2189.771252952791	126
2	7201	2190.887112428236	127
2	7202	2191.4375616149	126
2	7206	2192.679828750273	127
2	7208	2192.94979548115	128
2	7209	2193.120012350283	127
2	7213	2193.28157682511	128
2	7215	2194.168164047627	129
2	7216	2194.384994904413	128
2	7220	2194.62671150401	129
2	7221	2196.182497465699	128
2	7224	2197.771418009601	127
2	7228	2198.633630812951	128
2	7230	2199.126956598545	129
2	7231	2199.286760254852	128
2	7235	2200.033202449626	129
2	7236	2201.273965777359	128
2	7240	2202.751416446757	129
2	7241	2203.019064745954	128
2	7245	2204.067173641848	129
2	7246	2204.892900103419	128
2	7250	2205.889647016405	129
2	7251	2206.50868827784	128
2	7254	2207.909797940678	127
2	7258	2207.935089220043	128
2	7260	2209.176313494763	129
2	7261	2209.84986581122	128
2	7265	2210.665254194676	129
2	7266	2211.324380270852	128
2	7270	2212.172084932643	129
2	7273	2212.86707046078	128
2	7277	2213.667443111751	129
2	7278	2214.792444605655	128
2	7281	2216.078524297937	127
2	7285	2216.128279389916	128
2	7287	2216.147231490751	129
2	7288	2217.405795890927	128
2	7292	2218.550503948472	129
2	7294	2218.716389252399	130
2	7295	2219.307314207308	129
[...]
5	74616	22433.374405358051	2225.2845436986
5	74631	22438.03394611	16323.22952729
5	74634	22439.628777460073	6060.3480496589
5	74652	22446.575455647213	7713.9439175851
5	74724	22467.80922878037	2229.9532870302
5	74753	22475.884891081291	2230.3780273741
5	74783	22485.293279845702	2228.9266930171
5	74815	22494.822974281074	6067.2597454496
5	74872	22511.765701080732	2227.2469557774
5	74894	22518.312571768896	15056.594368184
5	74911	22523.151602669679	4242.0312743663
5	74916	22524.913965712734	4241.0427091115
5	74923	22526.39191350142	11530.071055728
5	75017	22555.307404155159	2226.55897417
5	75041	22562.262444884019	4246.5041614334
5	75058	22566.694198406177	12566.075872995
5	75063	22567.947328886824	6089.4426533582
5	75103	22580.276497073347	14331.913585567
5	75131	22589.645751289527	11566.498829421
5	75136	22591.253446103136	13515.313561604
5	75207	22613.813915459874	4254.9111933861
5	75306	22644.54486059683	12618.799577616
5	75337	22656.131332661459	10486.069414239
5	75345	22659.658027967872	18159.938125204
5	75350	22661.393573558764	2239.2905345683
5	75415	22679.094683184535	4277.1564356486
5	75455	22692.006347581061	9230.1120956665
5	75534	22717.423484346891	7819.8877096436
5	75545	22722.449524577955	6142.9376686857
5	75589	22732.068989050823	12678.201649372
5	75653	22750.876669117499	6150.0589399731
5	75793	22789.625080655204	4305.7711223669
5	75812	22793.957805914865	7833.3752869164
5	75829	22799.013219518835	6161.1245012459
5	75881	22814.611580263513	7846.5862995159
5	75948	22837.082213023926	6175.3891848101
5	75954	22840.017841757338	6176.4341442665
5	75977	22847.548141769941	7864.2609629944
5	75992	22852.345502698298	15983.785189416
5	76039	22865.401069624412	13702.530039162
5	76046	22866.999114956769	2258.0673359848
5	76075	22878.393069863382	18349.215437446
5	76106	22886.414605295162	6173.0270501641
5	76131	22895.176419830571	13720.73271136
5	76177	22910.461424160623	6181.3312496987
5	76212	22921.998553868072	11756.353720213
5	76215	22923.894035631293	13734.191406424
5	76228	22928.841471864903	6180.7928441641
5	76235	22930.304258093113	11757.484950955
5	76245	22933.792698911266	13732.270951463
5	76248	22935.132024646425	9338.8331040826
5	76285	22947.380397943095	2264.2162004345
5	76356	22967.996513471813	10630.857489677
5	76398	22983.132221240238	16721.944965843
5	76492	23008.575449705928	4327.7318218866
5	76630	23048.145372443148	7887.0388213483
5	76767	23087.396203076156	20527.675155679
5	76800	23095.547550128462	14663.713143004
5	76840	23109.331132678191	2272.3041008683
5	76865	23116.433173452008	12876.102205999
5	77127	23191.096936795734	4364.4347311404
5	77266	23236.61907092879	2280.318881782
5	77355	23261.41324312842	4377.3659618765
5	77376	23268.396080023856	4383.0616253047
5	77405	23275.775051324502	9454.9163295538
5	77420	23281.071318866931	4385.1547969734
5	77479	23300.754780289591	18153.580866497
5	77497	23308.329089716882	19874.917112681
5	77507	23311.881020114072	2291.7835490064
5	77581	23335.499704603909	2286.3870115385
5	77605	23341.632316101773	2290.8866320748
5	77628	23346.758892081177	9468.4449908879
5	77654	23355.197874579822	6271.7127050138
5	77690	23367.247618005296	7985.3967614331
5	77751	23384.161494071838	10808.720058092
5	77775	23390.088572923152	7992.4455525717
5	77825	23402.358435141726	6285.6894138622
5	77828	23404.096696604288	2288.7007667867
5	77838	23407.365397319629	2289.4446246712
5	77841	23408.57789987108	8000.6249134944
5	77925	23435.27350106208	6292.3924083251
5	77972	23448.434233397863	4394.6926913423
5	78098	23484.360636273459	8025.1399392339
5	78192	23513.575521169851	2297.1125892736
5	78275	23537.375065588454	9563.4444160761
5	78311	23549.487693919489	9571.2151784769
5	78379	23571.581882877336	8065.4081974698
5	78422	23579.372428727397	6340.3734210445
5	78453	23587.986208909065	12101.580665025
5	78471	23594.623264782377	2312.4122815533
5	78691	23659.838222097851	14182.487529502
5	78713	23670.115419562033	6348.2415300991
5	78742	23681.536077948531	10964.274527122
5	78818	23704.596218222065	6353.0499056304
5	78868	23717.495854798577	9642.5499806913
5	78956	23743.545601352921	14249.30470309
5	78969	23748.67664623732	2323.3453843002
5	79001	23758.052404265164	2326.9781401296
5	79011	23761.316502519569	14253.925786495
5	79068	23779.353689399607	4472.318617547
5	79087	23784.454468393757	2332.2590682086
5	79097	23788.127882128082	4476.6101054491
5	79162	23807.399488833977	2337.1396633387
5	79231	23827.974117160647	6406.8192260994
5	79378	23875.099553511912	2343.8035806919
5	79404	23884.815423867167	6417.3190147242
5	79438	23894.972047732459	8162.9090489471
5	79514	23917.320921358714	2342.7306654327
5	79528	23921.006601356963	15222.661059091
5	79595	23939.558711686792	4511.7971125204
5	79606	23944.705145700152	2348.1165637812
5	79654	23957.517188152921	2353.7376401531
5	79736	23982.776090416933	11120.096402844
5	79854	24014.350972952944	4524.2718668946
5	79865	24019.684325903904	6456.7995712498
5	79881	24022.894302585784	8210.1628849612
5	79915	24032.774247280571	11154.40904597
5	79930	24037.178608652454	4533.5023950445
5	79970	24049.009320141998	2366.831517962
5	80172	24107.204449500762	4541.3509082752
5	80306	24142.119057455532	13503.350283231
5	80365	24161.534587379604	6495.9691481513
5	80390	24168.628104106582	2371.2108323431
5	80417	24176.244594107627	4553.022958947
5	80495	24198.480376585072	9860.1084689972
5	80565	24219.156283886416	16218.018578589
5	80616	24232.637216133497	4562.4315027608
5	80626	24235.841430243164	15428.828402179
5	80682	24252.820076494909	9899.0624466795
5	80756	24276.037856130175	12500.237515176
5	80867	24306.654241200596	9921.3803507665
5	80932	24325.244263283223	20387.962057541
5	80938	24327.960155462161	4600.7646848996
5	81032	24356.646572953896	4609.7349597051
5	81054	24363.392796910242	8349.1265834719
5	81081	24370.557574060061	8345.987566886
5	81086	24372.325512939752	20798.00320633
5	81182	24401.566115477183	17085.894334309
5	81185	24402.851566714854	13657.852281096
5	81255	24420.436721719676	2414.0771375735
5	81376	24456.659221078332	11361.129599017
5	81466	24483.168030976755	2418.2564131792
5	81541	24506.382047608559	2408.5734770555
5	81588	24517.135341053707	6593.0958075505
5	81754	24569.118024617312	8411.7166115536
5	81786	24578.351972731453	2425.6343542999
5	81796	24581.145607067895	22528.721724339
5	81808	24584.240798155655	22113.21091661
5	81849	24598.580847109174	12678.25508891
5	81859	24601.307590695536	4648.3844956026
5	81866	24602.602480288474	6629.62697613
5	81950	24631.164595814115	11460.931742787
5	82028	24653.415291928752	2428.0581907129
5	82107	24673.819241212188	8445.5496568775
5	82135	24683.009089217959	14830.647987545
5	82150	24688.572770584254	17978.272646132
5	82170	24695.332172870701	6654.0894975654
5	82204	24703.949742141246	14844.230648932
5	82237	24716.3952622025	2432.3403070056
5	82307	24739.278757059826	6670.6115228621
5	82401	24767.076276786877	2425.4453197396
5	82472	24787.555801613136	10120.604812806
5	82542	24807.383566566995	4682.9125461207
5	82582	24820.642500331506	8508.0418772176
5	82592	24823.289649797856	2442.3165358075
5	82595	24824.804366624608	14917.56364336
5	82694	24855.04103809285	21857.248981738
5	82760	24876.94976691219	10157.873924695
5	82770	24880.61464448112	12829.12880283
5	82905	24919.415447830103	18793.569209846
5	82973	24941.669564822196	10181.053696429
5	82978	24943.552293128773	10182.614627782
5	83031	24959.259377224996	11614.636118337
5	83039	24962.157077253863	12873.942090794
5	83070	24970.294074298508	6697.73222699
5	83076	24973.909589275412	2454.4415241242
5	83149	24993.696352401816	10203.79371316
5	83157	24996.442062639699	4681.4024010126
5	83177	25002.696433145993	2458.3437798135
5	83187	25006.167349236713	10207.196999873
5	83276	25030.22193662345	2463.9532559964
5	83323	25044.383547536728	8551.6097120405
5	83333	25047.569571749566	12904.51710981
5	83346	25052.264051452538	6703.5068541107
5	83429	25079.020123381053	6718.3640371786
5	83438	25081.01789463151	4695.366724304
5	83574	25120.458184003902	6730.6324004328
5	83590	25127.422418513408	11675.135813919
5	83641	25141.796280771381	11682.315715399
5	83732	25170.360358345026	6752.7902424395
5	83838	25202.694436715061	10292.932471514
5	83918	25228.78317662895	2473.0800487234
5	84199	25312.247940174941	11801.196089892
5	84219	25317.627747120228	6806.2260402115
5	84459	25391.708535984799	16216.159188406
5	84465	25395.272155922733	4749.6622606149
5	84487	25402.205071676419	14249.442933982
5	84514	25410.08377424729	15266.741185601
5	84517	25411.293762639248	10354.428289464
5	84611	25439.884446315738	8673.5863992641
5	84689	25463.493603566933	10363.900183034
5	84694	25464.996611219916	10363.970148089
5	84896	25523.140206330731	4750.1530121414
5	84910	25525.720926736198	23415.94293561
5	85095	25585.46325514493	6853.8673342795
5	85254	25631.654342269241	2516.5972672033
5	85272	25638.343271810091	18678.694318822
5	85400	25678.725020908094	2515.5102478692
5	85486	25704.322626282922	2522.4635898822
5	85584	25734.651630377112	22327.566371052
5	85602	25741.464908161288	15458.998760737
5	85614	25745.311155494762	16415.508802116
5	85672	25765.405608879117	14438.526828102
5	85757	25792.149515638774	2543.3781786014
5	85774	25796.640465341036	6920.2308693063
5	85785	25801.157471792487	8801.4802524526
5	85790	25802.757018323516	10508.199715808
5	85793	25804.337688389508	6921.7584765914
5	85803	25807.636039384356	4823.8327215414
5	85876	25828.954359318219	6926.6712152361
5	85937	25846.920511776858	10526.252138759
5	85953	25850.39151149457	12010.992156344
5	86144	25906.091187473667	6922.6135908222
5	86245	25936.988752785979	8834.8636199443
5	86282	25948.891343822239	10549.205127704
5	86339	25965.137109714656	14545.667372153
5	86353	25971.829052532373	2549.2421327798
5	86356	25973.372485742254	6942.47857218
5	86374	25980.702660051829	8848.355689648
5	86393	25984.903921433634	2555.0170636374
5	86396	25986.746655794888	8849.0439442207
5	86486	26016.773730599792	12081.623918944
5	86497	26021.138917538994	13409.546482116
5	86511	26024.184448205218	10575.232776893
5	86539	26032.888359416559	18969.501767094
5	86565	26038.972631525531	4857.7853014093
5	86653	26067.899136126697	10601.191294273
5	86800	26109.702526490674	18315.69858145
5	86817	26114.306903245398	4881.1528166936
5	86836	26119.053424831949	8897.4091500983
5	86880	26134.213789757437	15714.855267668
5	86888	26137.230244440308	4885.3084499655
5	86913	26145.925717120339	2572.6139688446
5	87041	26186.41876116926	14685.821525315
5	87046	26187.83531351993	21956.413551259
5	87088	26203.799128795322	7013.7422245046
5	87101	26209.040959977452	2586.0838513847
5	87172	26232.577699103671	7026.2338469526
5	87261	26260.362341037483	13550.495873376
5	87269	26262.929033261442	10670.167933503
5	87308	26277.145204688327	7035.3136177912
5	87315	26278.960679560618	4910.085752024
5	87353	26290.657452532925	8945.0463642004
5	87407	26307.538207532369	8954.9407615919
5	87533	26340.519326012113	13601.317719112
5	87588	26354.731115106024	2594.6922692021
5	87598	26357.607460340202	10719.454786219
5	87654	26373.865051003635	2598.8574869907
5	87672	26379.527038617521	7073.1709326473
5	87677	26380.824261997356	16867.037656416
5	87714	26392.203977603367	2598.3182797743
5	87767	26410.711759388534	2601.8736030508
5	87818	26425.180367152293	23259.984046332
5	87963	26470.170614894192	4947.0017774487
5	87977	26473.330180434036	4949.1929470573
5	88010	26481.567882540907	2611.2341565312
5	88061	26498.534279121729	12332.497705842
5	88156	26526.235672244702	12342.967896759
5	88171	26531.539253565755	7123.4794241899
5	88176	26532.972975330699	12347.943511102
5	88497	26629.383877630245	9085.0690197479
5	88549	26647.760334630025	2627.5145160535
5	88571	26654.297137658198	10848.227601417
5	88607	26666.636221282641	5001.0617136006
5	88610	26668.279737563516	10853.107128621
5	88630	26674.130810754272	12416.888990407
5	88706	26692.246180043081	10853.757493805
5	88737	26704.490919284607	17085.329470232
5	88765	26714.526484806362	2639.3143635187
5	88947	26765.367670671356	13836.876951337
5	89137	26822.781824757057	15097.94725158
5	89152	26827.487344015847	15100.243960814
5	89235	26851.796883012625	7222.2589306466
5	89240	26853.186675454388	5035.5258666436
5	89255	26857.920101184482	9166.2527715851
5	89260	26859.745034232447	16200.556555124
5	89291	26870.782526670293	15130.723193945
5	89326	26881.686871025049	7229.7176359943
5	89391	26898.214745447679	7234.8831172596
5	89399	26901.731930819234	2670.7084405951
5	89405	26905.05733016458	2671.2441953438
5	89479	26927.227076916478	10971.178134501
5	89529	26942.650510703109	18124.755427996
5	89549	26948.773085048131	16240.545013563
5	89622	26969.705526554107	2674.8563502181
5	89669	26984.742584746971	7276.0455279506
5	89726	27002.569750471866	9225.0348059355
5	89791	27022.653519225574	23082.656097251
5	89896	27056.638883338949	5102.6441919809
5	89946	27069.273675347758	2688.888049261
5	90085	27108.536457053466	19792.792262179
5	90090	27110.226349719135	2697.6076937046
5	90125	27121.527245646795	9269.1918754729
5	90150	27130.264774115835	22268.871676568
5	90222	27152.566699350887	12686.802630325
5	90279	27170.451350482816	11069.033135685
5	90307	27179.947573185416	7326.4635116595
5	90355	27193.47073909499	19102.67102203
5	90358	27194.777848938743	17409.721847766
5	90418	27215.208540116325	2712.3610062701
5	90459	27226.2602444724	5129.3326435544
5	90527	27246.360576051178	7352.6928661223
5	90560	27257.688731655927	2720.0580566256
5	90577	27262.029554926866	5140.3433107707
5	90587	27264.492753944249	2721.3413595644
5	90599	27270.637193072291	19910.147002482
5	90875	27350.273183175623	19229.616135477
5	90881	27353.56117816314	11160.800435019
5	90991	27386.315592664928	12794.768661809
5	91003	27389.615700836183	2728.8280918299
5	91060	27406.643670415022	5167.2209683546
5	91073	27411.31009366259	9380.5652399733
5	91225	27455.240195559225	2730.1923406541
5	91362	27492.692224661523	9407.6845817336
5	91484	27527.466192558297	2737.4703013166
5	91492	27530.128378499375	2737.7461935807
5	91497	27531.764401103818	11228.495514433
5	91505	27534.860166588688	2737.8780684286
5	91626	27572.518941661605	14312.264568004
5	91636	27575.648412692623	2732.9503893989
5	91641	27576.867057089956	19402.119522667
5	91801	27622.805892377237	9431.279090044
5	91816	27627.54325431239	2733.1485456342
5	91873	27645.611665109993	17693.75645497
5	91965	27674.001230344625	5200.4207102061
5	91988	27682.555923763926	9443.5883656251
5	92030	27694.652661644372	12932.778057871
5	92057	27703.313478321846	2747.2601352152
5	92074	27708.277004212777	2748.4647080329
5	92080	27711.5860359161	2746.9331546106
5	92146	27731.284912099394	2749.6520776924
5	92183	27743.408471653688	9456.4267782749
5	92211	27753.171996013339	5211.5969073647
5	92236	27761.185888930302	2751.4379253721
5	92311	27784.470602620471	5220.6765799939
5	92319	27787.323695584092	2758.7701583945
5	92361	27797.271792984646	15662.039491563
5	92398	27807.575536901583	2761.3004098792
5	92432	27817.323530358341	9468.0264933012
5	92540	27850.205853723439	22298.527210143
5	92808	27929.425313237383	9517.5672745996
5	92963	27971.69962818779	7502.8513642961
5	93030	27993.92411482211	2777.2588123735
5	93281	28061.498744436052	24712.392488592
5	93345	28080.785775261815	2783.9854074188
5	93367	28087.796208559606	7540.1131471368
5	93372	28089.515194786038	2788.0615210161
5	93380	28093.067267819006	13128.044765635
5	93402	28100.278623296206	2790.879233831
5	93447	28115.587740092797	2791.7400899384
5	93821	28224.087813020571	7548.0062292267
5	93840	28228.989609176553	19023.577594206
5	93884	28241.648048272245	7552.2539559051
5	93962	28266.029893030116	17064.62753165
5	94074	28301.047103351615	17080.416510729
5	94150	28326.841460794659	7566.8505219078
5	94182	28336.435813842603	18133.456840494
5	94207	28341.173916563281	5312.7730007676
5	94217	28344.500801250787	5311.330885935
5	94220	28346.405846557097	2817.6563050608
5	94237	28350.560730419384	17109.12924041
5	94247	28354.217024635041	7577.5804263565
5	94314	28376.631637759771	2817.9627095377
5	94322	28380.012754761319	22711.327916193
5	94353	28391.507836890858	7599.3426666853
5	94377	28397.930403777104	15991.31745099
5	94412	28412.28903204937	11538.231205099
5	94505	28438.363051750778	17175.406163359
5	94553	28450.544400115952	24297.725030395
5	94556	28452.440540169448	7622.0449165232
5	94609	28471.292436482094	5345.9064689639
5	94700	28500.181009087418	18245.385834455
5	94715	28505.035374489319	9711.7509930567
5	94772	28519.017846028957	17224.047923938
5	94775	28520.963157535236	2830.2500256716
5	94811	28531.746830101948	11582.927523561
5	94814	28533.304299897965	9723.9120223181
5	94853	28547.313439573799	25145.640330213
5	94879	28556.408441890669	5370.7217687345
5	94884	28558.165963144121	7649.1345249045
5	95039	28600.332925455723	11617.838755999
5	95147	28633.187412639041	7656.561704298
5	95170	28642.179645242435	7652.9963950484
5	95202	28654.072518171636	5376.4514294484
5	95403	28707.904395291664	2843.5358436719
5	95485	28733.717347703211	13392.117884255
5	95497	28736.651555493556	11666.566419872
5	95549	28752.846192998334	2847.2833217712
5	95668	28786.921739249945	14881.950498801
5	95677	28792.174582037226	14884.903586141
5	95734	28810.073236639694	7693.1880847959
5	95812	28834.711050772379	24624.172694639
5	95821	28839.883732758734	13415.662748278
5	95911	28865.198400077868	13431.501168318
5	96002	28893.142332341608	25755.700964351
5	96029	28901.135707764786	11717.478222615
5	96106	28924.939960255747	13454.914967303
5	96251	28964.570017725127	7735.0848934321
5	96280	28972.343746456215	23181.385384111
5	96437	29026.146745184895	15026.112373508
5	96542	29060.077356846343	9869.8562495614
5	96679	29101.966567445631	7768.2582268079
5	96826	29142.359567363645	5438.6424918668
5	97046	29205.557529658348	2859.727747997
5	97133	29233.845385550231	5466.2080912069
5	97224	29268.052069218538	7809.1470470276
5	97240	29273.910571851476	2874.2276923558
5	97278	29286.450816203922	28833.918370205
5	97307	29294.470011530713	11879.953448185
5	97349	29307.491870348426	9974.5086144225
5	97379	29314.84494442408	7820.7279481506
5	97550	29363.876518354834	26184.529290209
5	97567	29367.864645104752	15209.62642677
5	97681	29400.590188559787	2885.9745279495
5	97746	29419.188051650198	5500.2982788744
5	97756	29421.917525032246	13674.822170599
5	97809	29435.710020020873	13686.428587983
5	97865	29453.250183746488	22261.301238166
5	97901	29461.922220593588	10023.22056042
5	98015	29495.27436022096	7880.0809426323
5	98081	29517.444382763732	13729.167207572
5	98136	29532.04432891373	5524.8377531979
5	98225	29558.772209988239	5531.6053352139
5	98268	29573.437343018393	5527.6561182876
5	98336	29593.132202233079	12002.015947859
5	98424	29618.506346618274	13768.734858314
5	98450	29628.402226412001	2889.3105875212
5	98460	29631.340070772994	5534.7430304457
5	98465	29633.198855486031	5532.9714566643
5	98573	29665.430707644002	10094.592779184
5	98588	29670.055426522606	13795.547516465
5	98637	29684.708853072189	17980.272319753
5	98666	29695.678460931852	2901.6097245517
5	98669	29697.227146361842	5559.7796262041
5	98736	29718.236120691598	16779.033090156
5	98801	29739.582629948557	10119.636579895
5	98828	29750.081410392263	15420.327799229
5	98848	29756.866353128553	5571.0471545604
5	98894	29769.039711561502	5569.0361765102
5	98949	29783.913774929272	2902.4693390919
5	98963	29790.588497587369	12086.391906212
5	98973	29793.640902574622	5576.4967530524
5	99010	29807.76913382195	13859.029614242
5	99102	29839.803024062961	13875.155402859
5	99197	29864.405203843191	5582.2984532735
5	99209	29868.14006966155	5585.8766024819
5	99257	29881.368892514965	5588.9056680827
5	99277	29887.911288601047	2916.3489264877
5	99287	29890.580366974397	7994.6819634565
5	99451	29939.415690993031	2912.189519238
5	99463	29942.408391009344	21103.80252747
5	99486	29950.580700299962	15547.878977089
5	99514	29960.530786960271	15555.031503072
5	99522	29963.157410389442	15554.553147052
5	99601	29987.149576602388	5614.3295601128
5	99607	29989.800345367078	10226.284153782
6	77	42.928974458544	21.514828391704

