version 2
run Third_exit_8-18-20191023-00:20:28-5322
attr configname Third_exit_8
attr datetime 20191023-00:20:28
attr experiment Third_exit_8
attr inifile omnetpp.ini
attr iterationvars ""
attr iterationvarsf ""
attr measurement ""
attr network ResponseTimeNetwork
attr processid 5322
attr repetition 18
attr replication #18
attr resultdir results
attr runnumber 18
attr seedset 18
param **.Source.interArrivalTime exponential(6s)
param **.jobPriority bernoulli(0.8)
param **.PS.serviceTimeU1 "uniform(1.2s, 2.0s)"
param **.PS.serviceTimeU2 "uniform(2.4s, 2.8s)"
param **.SS1.serviceTime exponential(1.4s)
param **.SS2.serviceTime exponential(2s)
param **.PS.exitProbability bernoulli(0.8)

vector 0 ResponseTimeNetwork.SS1 queueLength:vector ETV
attr interpolationmode sample-hold
attr title "queue length, vector"
vector 1 ResponseTimeNetwork.SS2 queueLength:vector ETV
attr interpolationmode sample-hold
attr title "queue length, vector"
vector 2 ResponseTimeNetwork.QueueU1 queueLength:vector ETV
attr interpolationmode sample-hold
attr title "queue length, vector"
vector 3 ResponseTimeNetwork.QueueU2 queueLength:vector ETV
attr interpolationmode sample-hold
attr title "queue length, vector"
vector 4 ResponseTimeNetwork.sink lifeTimeU1:vector ETV
attr interpolationmode none
attr title "lifetime of arrived jobs U1, vector"
attr unit s
vector 5 ResponseTimeNetwork.sink lifeTime:vector ETV
attr interpolationmode none
attr title "lifetime of arrived jobs, vector"
attr unit s
2	0	0	0
2	5	6.779680949296	1
2	6	7.851452173209	0
2	20	13.91845642925	1
2	21	15.129420528096	0
2	25	15.54524395876	1
2	26	17.00912447488	0
2	40	22.447920418143	1
2	42	22.613591807048	2
2	43	23.849373206792	1
2	47	24.344172997238	2
2	48	25.21221481554	1
2	52	25.682579964453	2
2	53	27.101515661848	1
2	57	27.411528797904	2
2	58	28.615422072557	1
2	62	29.749143399402	2
2	63	30.375146572028	1
2	67	30.70790758467	2
2	68	31.857060545792	1
2	71	33.708298894686	0
2	75	34.016194369781	1
2	76	35.12007322937	0
2	85	36.954891806152	1
2	86	38.0287679366	0
2	90	39.008559532187	1
2	91	39.618583320191	0
2	100	41.319765525851	1
2	103	43.175537318356	0
2	107	43.473448978813	1
2	108	45.014735333055	0
2	112	46.063693845464	1
2	113	46.726631615489	0
2	120	49.075026518864	1
2	122	49.321510718097	2
2	123	49.594519976332	1
2	127	50.99978208076	2
2	128	51.222247344247	1
2	131	52.433157346203	0
2	135	52.888894600162	1
2	138	54.235529124728	0
2	142	54.811340801331	1
2	143	55.879574240549	0
2	147	56.048668158236	1
2	149	56.345346247432	2
2	150	57.092614864177	1
2	153	58.467104394912	0
2	157	59.404423664447	1
2	158	59.695600640021	0
2	162	60.326783553371	1
2	164	60.66900776397	2
2	165	61.686398941457	1
2	169	63.222656269568	2
2	170	63.434689833402	1
2	173	65.019269403062	0
2	177	65.285446412353	1
2	178	66.483289277545	0
2	182	66.815608084127	1
2	184	67.59660976877	2
2	185	68.304988840214	1
2	189	68.50048593224	2
2	191	68.70449325098	3
2	193	69.068248318314	4
2	195	69.664425658299	5
2	196	70.29521783366	4
2	199	71.839425258889	3
2	203	72.262823388381	4
2	204	73.593144032537	3
2	207	75.182836698546	2
2	211	75.204494343885	3
2	212	76.910561016566	2
2	216	76.960974335376	3
2	218	77.660466926577	4
2	219	78.520799238413	3
2	223	80.044465833435	4
2	224	80.101554034084	3
2	228	80.30561615593	4
2	229	81.703213929005	3
2	232	83.164144875474	2
2	236	84.12042909558	3
2	237	84.482559148028	2
2	241	84.510192947277	3
2	243	85.547238042571	4
2	244	86.458660656206	3
2	247	88.211714150563	2
2	251	89.603007468776	3
2	252	90.202338939712	2
2	256	90.992515186415	3
2	257	91.456040530645	2
2	261	91.859930387363	3
2	263	92.168991829596	4
2	264	93.043684295931	3
2	268	93.059466407781	4
2	269	94.306964834214	3
2	273	94.338108114443	4
2	275	94.717760873473	5
2	277	95.001014363834	6
2	279	95.841430165173	7
2	280	96.239218495593	6
2	283	97.629078645066	5
2	287	97.935272054227	6
2	289	99.020554930915	7
2	290	99.20215781498	6
2	293	101.027829570502	5
2	297	101.042304962307	6
2	299	101.951522313871	7
2	300	102.870656957284	6
2	304	104.375760858525	7
2	305	104.822314967953	6
2	308	106.403136146993	5
2	312	106.664477561908	6
2	314	107.077217099849	7
2	315	108.121048551605	6
2	319	108.701969563561	7
2	321	109.206197100653	8
2	322	109.966865162545	7
2	325	111.67625913638	6
2	329	112.209409661383	7
2	330	113.358946866536	6
2	334	113.773611697102	7
2	335	114.839098968723	6
2	339	115.600984547422	7
2	340	116.471967001998	6
2	344	116.954301688141	7
2	345	117.894841940881	6
2	348	119.525162473873	5
2	352	119.651510198546	6
2	353	120.959712541655	5
2	356	122.95081900283	4
2	362	123.880533473572	5
2	363	124.624587401741	4
2	367	125.274432351391	5
2	368	126.537070125894	4
2	371	127.834125767083	3
2	375	129.052885058878	4
2	376	129.238800111593	3
2	380	129.249497629432	4
2	382	129.952403790442	5
2	383	130.775468759605	4
2	387	131.890030002747	5
2	388	132.586133109213	4
2	392	132.798324943159	5
2	393	134.383217906014	4
2	397	135.589435548534	5
2	398	135.617832782299	4
2	402	136.571317885103	5
2	403	137.150006295548	4
2	407	137.578176154879	5
2	408	138.385381365561	4
2	412	139.15864158028	5
2	413	140.238171509461	4
2	416	141.965676072234	3
2	420	142.090363876444	4
2	422	142.355160353201	5
2	423	143.353974025504	4
2	427	143.753160814819	5
2	428	144.977796846249	4
2	431	146.741944946528	3
2	435	147.596072302568	4
2	437	147.821527321074	5
2	438	148.409533068158	4
2	443	150.236352509253	3
2	446	152.091865027316	2
2	450	153.060304043065	3
2	451	154.053516698249	2
2	455	154.356534151687	3
2	456	155.515781300508	2
2	460	155.992423231332	3
2	462	157.181023539792	4
2	463	157.491137120866	3
2	467	158.065930496284	4
2	468	159.395690241822	3
2	472	161.005643391337	4
2	473	161.246264112734	3
2	477	161.915472839754	4
2	478	162.553993785002	3
2	481	163.845072862872	2
2	484	165.598528606066	1
2	488	165.80419063114	2
2	490	166.789392752155	3
2	491	167.391417553642	2
2	495	167.487215779665	3
2	497	168.389991151019	4
2	498	168.827016387873	3
2	502	169.396557240134	4
2	504	170.45305471191	5
2	505	170.749627776623	4
2	508	172.534873300411	3
2	511	174.438997084454	2
2	515	174.990082905054	3
2	516	175.706305722885	2
2	519	177.337538784176	1
2	523	178.278791064564	2
2	525	178.848865965475	3
2	526	179.288034239031	2
2	530	180.304454384033	3
2	531	180.553764753408	2
2	534	182.450297027446	1
2	538	183.709719867488	2
2	539	183.876605960719	1
2	543	184.182358878126	2
2	544	185.44225039798	1
2	548	187.378401699358	2
2	549	187.392625539928	1
2	552	188.876167455121	0
2	556	189.079749535121	1
2	557	190.40136793404	0
2	561	190.431010298621	1
2	562	191.634128003	0
2	566	192.107200126081	1
2	568	192.451403293658	2
2	569	192.904059380098	1
2	575	193.186282087315	2
2	577	194.319378445201	3
2	578	194.59702575001	2
2	581	196.154127466111	1
2	585	196.245314070203	2
2	586	197.455589985652	1
2	590	197.529622059788	2
2	591	198.997819545297	1
2	594	200.454841774879	0
2	598	200.502408909899	1
2	600	200.971581528522	2
2	602	201.98176483532	3
2	603	202.04402747768	2
2	609	202.455623049661	3
2	610	203.597862710236	2
2	614	203.735541385407	3
2	615	204.980711027412	2
2	619	206.03305693086	3
2	622	206.637052636212	2
2	626	206.80909556328	3
2	627	208.431060198685	2
2	631	208.609086024751	3
2	632	210.23729608505	2
2	636	211.235459393485	3
2	637	211.84755212496	2
2	641	212.240509760402	3
2	642	213.791210373295	2
2	645	215.168360625943	1
2	648	216.530442702388	0
2	652	216.553631892742	1
2	654	217.296361498698	2
2	657	218.364229403054	1
2	661	218.546654779852	2
2	663	218.816495544901	3
2	665	219.108709194059	4
2	666	219.936808398543	3
2	670	220.342529301122	4
2	671	221.911856450318	3
2	675	223.065355158771	4
2	677	223.198690759024	5
2	678	223.240337974383	4
2	683	224.710372804469	3
2	687	225.6937507381	4
2	688	226.037725966042	3
2	692	226.227979251718	4
2	694	227.235690993978	5
2	695	227.392290467387	4
2	698	229.009593586242	3
2	702	230.547408455744	4
2	703	230.565452982104	3
2	707	231.274381164497	4
2	709	231.539450057141	5
2	710	232.119488358861	4
2	714	232.174903712936	5
2	716	232.351073581222	6
2	717	233.334696760392	5
2	721	234.526440978995	6
2	722	234.648319216995	5
2	725	236.551126632831	4
2	729	236.773129632495	5
2	730	237.817484626538	4
2	734	238.355546998829	5
2	735	239.629244614384	4
2	739	239.972050005898	5
2	741	241.136870517688	6
2	742	241.293234077087	5
2	745	243.008523060559	4
2	749	243.447331548083	5
2	750	244.446101682252	4
2	754	244.540532414741	5
2	756	244.955761311637	6
2	758	245.077854382474	7
2	760	246.151050060252	8
2	761	246.230077927551	7
2	765	246.820215947997	8
2	766	247.501532675504	7
2	769	248.946975203409	6
2	773	249.070374363695	7
2	774	250.658144171528	6
2	778	250.881300663987	7
2	780	251.621658575042	8
2	781	252.017143304079	7
2	785	252.53283463369	8
2	786	253.95002192258	7
2	789	255.811141893259	6
2	793	256.485951898847	7
2	795	257.016779560021	8
2	796	257.632988212808	7
2	800	258.182893800131	8
2	801	259.047441024325	7
2	805	259.579220420466	8
2	806	260.908779339112	7
2	810	261.13820219179	8
2	811	262.892481427446	7
2	815	263.037157358005	8
2	817	263.907473341922	9
2	818	264.625055319063	8
2	821	266.057863586016	7
2	824	267.320313652225	6
2	828	268.972680189413	7
2	829	269.317089319967	6
2	833	270.609214537333	7
2	834	271.191140390739	6
2	838	271.444012750359	7
2	840	271.490444139662	8
2	842	271.888868586524	9
2	843	272.610026833221	8
2	847	272.629421620371	9
2	849	273.247510479526	10
2	850	274.06491281408	9
2	854	274.392448259762	10
2	855	276.020743542529	9
2	859	277.284361593708	10
2	860	277.905229710779	9
2	863	279.400812154068	8
2	867	279.760250698969	9
2	869	280.472047103995	10
2	870	281.164435395031	9
2	874	281.200063051071	10
2	875	282.798036853588	9
2	878	284.060256065978	8
2	882	284.246766639371	9
2	883	286.002163681938	8
2	887	286.379872924198	9
2	889	287.204956292165	10
2	890	287.736874314761	9
2	894	288.226009391994	10
2	895	289.001955736233	9
2	899	289.451547262244	10
2	900	290.613442095546	9
2	904	291.818857377216	10
2	905	292.2520677613	9
2	909	292.310003128166	10
2	910	293.958254119931	9
2	914	293.960324702383	10
2	916	295.187253142593	11
2	917	295.428727590656	10
2	921	296.557862068512	11
2	922	296.913882379038	10
2	926	297.394472457029	11
2	927	298.411418485259	10
2	931	300.10726229411	11
2	933	300.140743473975	12
2	934	300.191022055027	11
2	937	301.555640782778	10
2	940	303.495848814388	9
2	944	303.901195532316	10
2	946	304.789472722186	11
2	947	304.958251295229	10
2	951	305.810207744938	11
2	952	306.341934083579	10
2	955	308.162690274408	9
2	959	308.547571494046	10
2	961	309.349711801218	11
2	962	310.158182871705	10
2	965	311.993151227189	9
2	969	312.349893948672	10
2	971	312.530293285616	11
2	972	313.784044285109	10
2	976	314.360304303337	11
2	977	315.14622705373	10
2	981	316.323345490724	11
2	982	316.432534851125	10
2	985	318.317657104871	9
2	988	319.945802383861	8
2	992	320.273621716127	9
2	993	321.164503402813	8
2	997	321.451268857246	9
2	999	321.581589105241	10
2	1001	321.961958801566	11
2	1002	322.796078030384	10
2	1005	324.579681572496	9
2	1009	325.084654068754	10
2	1010	326.231673684149	9
2	1013	327.572966819248	8
2	1017	327.959894953791	9
2	1019	328.733600747901	10
2	1020	328.934741759664	9
2	1024	329.390861688672	10
2	1026	330.439460304073	11
2	1027	330.681374881035	10
2	1031	330.857848579663	11
2	1033	331.66199802367	12
2	1035	332.015797779464	13
2	1037	332.067423912906	14
2	1038	332.491236752635	13
2	1041	333.743020272805	12
2	1045	334.239643569063	13
2	1047	334.644538579363	14
2	1048	335.506783459141	13
2	1052	337.431152102538	14
2	1053	337.496625900819	13
2	1056	339.059236869208	12
2	1060	339.588070685051	13
2	1061	340.288776280164	12
2	1065	340.558626923518	13
2	1067	341.432712486204	14
2	1068	342.085966978028	13
2	1072	343.686209371115	14
2	1073	343.819979451589	13
2	1076	345.217522584453	12
2	1080	346.032227519513	13
2	1081	347.183827713683	12
2	1085	347.952263029546	13
2	1086	348.837814244993	12
2	1089	350.396887629658	11
2	1093	350.696447584657	12
2	1094	351.83213715478	11
2	1098	352.952873317498	12
2	1099	353.06443089693	11
2	1105	353.806953456041	12
2	1106	354.279250515617	11
2	1110	355.065781818025	12
2	1111	355.855463633306	11
2	1115	356.228304442456	12
2	1117	357.157504325586	13
2	1118	357.711244251944	12
2	1122	358.323931981381	13
2	1123	359.537297303595	12
2	1127	360.011245056564	13
2	1128	361.530789101303	12
2	1131	362.905275758163	11
2	1134	364.387828488269	10
2	1138	366.028375093433	11
2	1139	366.211915887886	10
2	1143	366.623680731508	11
2	1145	366.944230201163	12
2	1146	367.859235724055	11
2	1150	369.491373046332	12
2	1151	369.641355582879	11
2	1154	370.850751141452	10
2	1158	371.723600142896	11
2	1159	372.417425944836	10
2	1163	372.655136405136	11
2	1164	374.132681597949	10
2	1167	376.124232895852	9
2	1171	376.343143691427	10
2	1172	377.690208290883	9
2	1175	379.237162132927	8
2	1179	380.188745760649	9
2	1180	381.229360704304	8
2	1183	382.771645676152	7
2	1187	384.038089574475	8
2	1188	384.198098320508	7
2	1192	385.549446666887	8
2	1193	385.606837412336	7
2	1196	387.457142670446	6
2	1200	387.912687288752	7
2	1202	388.580689628548	8
2	1203	388.853564078168	7
2	1207	389.147224371453	8
2	1209	389.400941158093	9
2	1210	390.06634524911	8
2	1214	391.473166142071	9
2	1215	391.610932970972	8
2	1219	391.749795729619	9
2	1220	393.201458531053	8
2	1224	393.540873694279	9
2	1226	394.385814967052	10
2	1227	394.850628088595	9
2	1231	395.866658795153	10
2	1232	396.26003475915	9
2	1235	397.96388806104	8
2	1239	398.246870560014	9
2	1240	399.25803189873	8
2	1244	399.645444390418	9
2	1245	400.620917539105	8
2	1249	400.983077905105	9
2	1251	401.713415730957	10
2	1253	402.085469402629	11
2	1254	402.18240775577	10
2	1258	402.463389488028	11
2	1260	403.681151173376	12
2	1261	403.857162403867	11
2	1265	404.229411854897	12
2	1266	405.630057619878	11
2	1270	405.774376052881	12
2	1272	406.585615599285	13
2	1273	407.469979105697	12
2	1277	407.597875411372	13
2	1278	408.750779394613	12
2	1282	409.761830779386	13
2	1283	410.512726141134	12
2	1287	410.821749535207	13
2	1288	412.467995808826	12
2	1292	412.784757465897	13
2	1295	413.985116051876	12
2	1300	415.335025780269	11
2	1303	416.556105013185	10
2	1306	417.966858426847	9
2	1309	419.246748534397	8
2	1313	419.399013203768	9
2	1315	420.023626873465	10
2	1316	420.921333633915	9
2	1320	422.397290009586	10
2	1321	422.783981682353	9
2	1324	424.486689917364	8
2	1328	424.596440758256	9
2	1330	425.165811050309	10
2	1331	426.051032403105	9
2	1335	427.063268970067	10
2	1337	427.188449819807	11
2	1338	427.310711002716	10
2	1342	428.145947889697	11
2	1343	428.876506410905	10
2	1347	430.0893150321	11
2	1348	430.226158013933	10
2	1352	431.240608078454	11
2	1353	431.824628072598	10
2	1356	433.488424512179	9
2	1360	433.765172679118	10
2	1362	433.77605231726	11
2	1364	433.778869376172	12
2	1367	434.900942206935	11
2	1370	436.225935235799	10
2	1374	436.260157439765	11
2	1376	436.518491885131	12
2	1378	437.201757303111	13
2	1379	438.061000109457	12
2	1383	438.793961208649	13
2	1385	439.755162394472	14
2	1386	439.790712344081	13
2	1390	439.798194105186	14
2	1392	440.514794214315	15
2	1394	441.09542797755	16
2	1395	441.289201984362	15
2	1399	441.700486788132	16
2	1401	442.124358442563	17
2	1402	443.185872751468	16
2	1405	444.955143654154	15
2	1408	446.654577882954	14
2	1412	446.716783763327	15
2	1414	447.549333670284	16
2	1415	448.313689766445	15
2	1419	449.521388708842	16
2	1420	450.299401097179	15
2	1424	450.445728237987	16
2	1425	451.543892526806	15
2	1428	453.299209600308	14
2	1432	454.321728416283	15
2	1433	454.969379500107	14
2	1437	455.53062716568	15
2	1438	456.237168685899	14
2	1442	456.796436461495	15
2	1443	457.688981040188	14
2	1447	458.892857454009	15
2	1448	459.38420417513	14
2	1452	460.746730879244	15
2	1453	461.07203027922	14
2	1457	461.655940364769	15
2	1458	462.426068619632	14
2	1461	464.184709144563	13
2	1465	464.682272828134	14
2	1466	466.051947440945	13
2	1470	466.076871883205	14
2	1471	467.592595706501	13
2	1475	467.718876910515	14
2	1476	468.796689758629	13
2	1479	470.345557652407	12
2	1483	470.69768312524	13
2	1484	471.595689854205	12
2	1488	471.717285083555	13
2	1490	471.966941990715	14
2	1491	472.895797398493	13
2	1495	473.508429218267	14
2	1496	474.572627959207	13
2	1500	475.577385953825	14
2	1501	476.269174488068	13
2	1504	477.709713837684	12
2	1510	478.411730798809	13
2	1511	479.148829737485	12
2	1515	479.306057812767	13
2	1516	480.53505528047	12
2	1520	481.734377115143	13
2	1521	481.829129135602	12
2	1525	482.852175056325	13
2	1526	483.088200044439	12
2	1530	483.98280641904	13
2	1531	484.487044214637	12
2	1535	485.352490998524	13
2	1537	485.40004747572	14
2	1538	485.891866525442	13
2	1541	487.198637045727	12
2	1545	487.325870149121	13
2	1547	488.389915444881	14
2	1548	488.637249309749	13
2	1552	489.177737156653	14
2	1554	489.895559427362	15
2	1555	490.132825010449	14
2	1559	490.854695268296	15
2	1560	491.349115624272	14
2	1564	492.148033810106	15
2	1565	492.749029185989	14
2	1568	494.349883018241	13
2	1571	495.883430435502	12
2	1577	497.201745549264	13
2	1579	497.269973803873	14
2	1580	497.772435980097	13
2	1584	498.057385984519	14
2	1586	499.379443394086	15
2	1587	499.747216815308	14
2	1590	501.711350643441	13
2	1593	502.962622126184	12
2	1597	503.331620478727	13
2	1598	504.409884186454	12
2	1602	504.818318151552	13
2	1604	505.126765289293	14
2	1606	505.380945531071	15
2	1610	505.918401524181	16
2	1611	506.206808866739	15
2	1615	506.259077475759	16
2	1616	507.461040017001	15
2	1619	508.974165051609	14
2	1623	509.875557828323	15
2	1626	510.711123341687	14
2	1630	510.989828692071	15
2	1632	511.454786531111	16
2	1634	512.226451315521	17
2	1635	512.582334672652	16
2	1638	514.461473551385	15
2	1641	516.388235681869	14
2	1645	516.68194053202	15
2	1647	517.385190743085	16
2	1648	517.757398589693	15
2	1651	519.219258624867	14
2	1655	520.754194773823	15
2	1656	521.12433316055	14
2	1659	522.878277865977	13
2	1665	523.438138827898	14
2	1667	523.542462179093	15
2	1668	524.257618059584	14
2	1671	525.83188332002	13
2	1675	527.424209286244	14
2	1676	527.739541109459	13
2	1680	528.044752075273	14
2	1682	528.653382127736	15
2	1684	529.039887097154	16
2	1686	529.517211604127	17
2	1687	529.60779527481	16
2	1691	529.822367447326	17
2	1692	531.223810229444	16
2	1696	531.334111180307	17
2	1697	532.708794204512	16
2	1700	534.473033597314	15
2	1703	536.287576375523	14
2	1707	537.257138155427	15
2	1708	537.66820276528	14
2	1712	537.905300289567	15
2	1713	539.146788380662	14
2	1717	539.604862263967	15
2	1718	540.434742286982	14
2	1721	542.166019891011	13
2	1724	543.823179030227	12
2	1728	544.88324005993	13
2	1730	544.999010851131	14
2	1732	545.476860053354	15
2	1733	545.499614474358	14
2	1737	545.846062220264	15
2	1739	546.565483617181	16
2	1741	546.708953754398	17
2	1742	546.960346152628	16
2	1745	548.466102113569	15
2	1748	549.933291327761	14
2	1752	550.161239326119	15
2	1754	551.252460494763	16
2	1755	551.558741709956	15
2	1758	552.846044381888	14
2	1762	553.145701008894	15
2	1764	553.586648135618	16
2	1766	554.339485467685	17
2	1767	554.684426834428	16
2	1771	554.778979969097	17
2	1773	555.6344629709	18
2	1774	556.576151975983	17
2	1778	556.770333095505	18
2	1780	557.890516548337	19
2	1782	558.007387521936	20
2	1784	558.104402433133	21
2	1785	558.382171684125	20
2	1791	559.299674329017	21
2	1793	559.603232020363	22
2	1794	559.647011884668	21
2	1798	560.480133767417	22
2	1799	561.598130725131	21
2	1803	561.780606560455	22
2	1804	562.808866549649	21
2	1808	563.47042970757	22
2	1809	564.539907458045	21
2	1813	565.798031729566	22
2	1814	566.067102419019	21
2	1817	567.270238904089	20
2	1821	567.437727547596	21
2	1822	568.777965082407	20
2	1826	569.461565671787	21
2	1827	570.038410661921	20
2	1831	570.483248767297	21
2	1832	571.346278880157	20
2	1836	572.227302225752	21
2	1838	572.378451164618	22
2	1839	573.044081810855	21
2	1843	573.466530690043	22
2	1844	574.939585757621	21
2	1848	576.328868153248	22
2	1849	576.410225517109	21
2	1853	576.780668534573	22
2	1855	577.13793837626	23
2	1856	578.035314415015	22
2	1859	579.680110416181	21
2	1862	581.540462767325	20
2	1866	581.989973248264	21
2	1868	582.530052759257	22
2	1869	582.899475350968	21
2	1873	583.557039821516	22
2	1875	584.112875607917	23
2	1876	584.679136492676	22
2	1879	586.665458289898	21
2	1883	586.906866706256	22
2	1885	586.917321356822	23
2	1886	588.019281642876	22
2	1890	588.26073778217	23
2	1892	588.263468108532	24
2	1894	588.38632734493	25
2	1895	589.650660288512	24
2	1898	591.331412493057	23
2	1901	592.648142746455	22
2	1904	594.558207873805	21
2	1908	595.214061491737	22
2	1910	595.667963435854	23
2	1911	595.974031863912	22
2	1915	595.979476509592	23
2	1916	597.612259003325	22
2	1920	598.496881020509	23
2	1921	599.551198967351	22
2	1925	600.604339397675	23
2	1926	601.02188343945	22
2	1929	602.281168411477	21
2	1933	603.651379262419	22
2	1935	603.762582854781	23
2	1936	604.153267754047	22
2	1939	605.745044126726	21
2	1942	606.9627640739	20
2	1945	608.654822177245	19
2	1949	609.439293718305	20
2	1950	610.454372729539	19
2	1954	610.972190413426	20
2	1955	612.006048847354	19
2	1959	612.429907231255	20
2	1960	613.401310155905	19
2	1964	614.806408909136	20
2	1965	615.090137784734	19
2	1968	616.824426018998	18
2	1972	617.240886466192	19
2	1973	618.033007440895	18
2	1977	618.693258689362	19
2	1979	619.102352660395	20
2	1980	619.908165684149	19
2	1984	620.00696710615	20
2	1986	620.564808917257	21
2	1988	620.687886416551	22
2	1990	620.735784750165	23
2	1991	621.171607610762	22
2	1994	623.119423633061	21
2	1997	624.630392847761	20
2	2001	625.448174242822	21
2	2002	626.274825157403	20
2	2005	627.539831557489	19
2	2008	629.440610728032	18
2	2012	629.896610778602	19
2	2014	630.245427977911	20
2	2016	630.622715189956	21
2	2017	631.42647402621	20
2	2021	631.6820247892	21
2	2023	632.39592611307	22
2	2024	633.215635452225	21
2	2027	634.87696243859	20
2	2030	636.825316044121	19
2	2034	637.787474876474	20
2	2036	637.886071073939	21
2	2037	638.368239778086	20
2	2040	639.968936424136	19
2	2044	639.976601049633	20
2	2046	641.198489871888	21
2	2048	641.484192035371	22
2	2049	641.820276105955	21
2	2053	642.11250365783	22
2	2054	643.104608204953	21
2	2057	644.447205380343	20
2	2061	645.385427601281	21
2	2062	645.743177574679	20
2	2066	646.270361715526	21
2	2067	647.287870117455	20
2	2071	647.678798255149	21
2	2074	648.706158313333	20
2	2078	650.386513041419	21
2	2079	650.516451581559	20
2	2083	651.053870566846	21
2	2084	652.385192504517	20
2	2088	652.969431081386	21
2	2090	653.201015662102	22
2	2092	653.39626268151	23
2	2094	654.026049608145	24
2	2095	654.111274350613	23
2	2099	654.114405529246	24
2	2101	655.644547792457	25
2	2102	655.906127225786	24
2	2105	657.883754857808	23
2	2109	658.552445723113	24
2	2111	659.53040308495	25
2	2112	659.576162900395	24
2	2115	661.362527385346	23
2	2119	661.774221533256	24
2	2120	662.965438673823	23
2	2123	664.398841308608	22
2	2129	665.128497813479	23
2	2131	665.518737184883	24
2	2132	665.702677303917	23
2	2136	665.833709792123	24
2	2137	667.652171211868	23
2	2141	667.755990743302	24
2	2144	669.066457513526	23
2	2147	670.42340929582	22
2	2151	670.44837873883	23
2	2152	671.959581724361	22
2	2156	672.187315414173	23
2	2158	672.465043435237	24
2	2160	672.526643492845	25
2	2162	673.222333607393	26
2	2163	673.290129825466	25
2	2167	674.460180957982	26
2	2168	675.108058253296	25
2	2171	676.44003798011	24
2	2175	676.525490277214	25
2	2176	677.9530606253	24
2	2180	678.543864662432	25
2	2182	678.948840395599	26
2	2184	679.169499441181	27
2	2185	679.367404298663	26
2	2189	680.129866445288	27
2	2190	681.305759084962	26
2	2193	683.064732817739	25
2	2196	684.885947217598	24
2	2199	686.366308956958	23
2	2203	687.670699968441	24
2	2204	688.033563445128	23
2	2207	689.748865130908	22
2	2211	690.04869245061	23
2	2212	691.025024916223	22
2	2216	692.7632234811	23
2	2217	692.873354640036	22
2	2221	693.006061298442	23
2	2222	694.24750629793	22
2	2225	696.233995646416	21
2	2229	696.392302805828	22
2	2230	698.190737083732	21
2	2233	700.169323863267	20
2	2237	701.04107761942	21
2	2238	701.782855921044	20
2	2242	702.175969035112	21
2	2244	702.451014953978	22
2	2245	703.114095411628	21
2	2249	703.406393184085	22
2	2250	704.451634811416	21
2	2253	706.428347528718	20
2	2257	706.562766996007	21
2	2258	708.008476897321	20
2	2262	708.741253161426	21
2	2263	709.886331252187	20
2	2267	710.06903711172	21
2	2268	711.390423876039	20
2	2271	713.30239358171	19
2	2275	713.628710255968	20
2	2277	713.9787801186	21
2	2278	715.097475969597	20
2	2282	715.150645289664	21
2	2285	716.873819080918	20
2	2289	717.200156902827	21
2	2290	718.543245195961	20
2	2294	718.811496748041	21
2	2295	720.04413424897	20
2	2298	721.957496222099	19
2	2302	722.471422202794	20
2	2304	722.536947921538	21
2	2305	723.378493018811	20
2	2309	723.779303115393	21
2	2310	724.610366228958	20
2	2313	726.609177597416	19
2	2316	728.165801280541	18
2	2319	729.664046839801	17
2	2323	729.741255618839	18
2	2325	730.369890270324	19
2	2327	730.942573954189	20
2	2328	731.115426881601	19
2	2332	732.26131501327	20
2	2333	732.740621028085	19
2	2336	734.106071827923	18
2	2340	735.019702416999	19
2	2342	735.228969203904	20
2	2343	735.802311003757	19
2	2346	737.174312826236	18
2	2350	738.007090385192	19
2	2351	738.656921658655	18
2	2354	740.18796103782	17
2	2358	741.392510555947	18
2	2359	741.988727863123	17
2	2362	743.893848136057	16
2	2366	745.251922597549	17
2	2367	745.775020710182	16
2	2371	746.905439246361	17
2	2372	747.570123196941	16
2	2377	749.517026543234	15
2	2381	750.098944184124	16
2	2382	750.904569882703	15
2	2386	751.563727977421	16
2	2387	752.434570992169	15
2	2391	752.65137243371	16
2	2392	754.168970503275	15
2	2395	755.528634743009	14
2	2399	755.607704496845	15
2	2401	755.809489525251	16
2	2403	756.43891638587	17
2	2404	756.756833903481	16
2	2408	757.361642236788	17
2	2410	758.172918146455	18
2	2411	758.706537253772	17
2	2415	759.498311581197	18
2	2416	760.63189492355	17
2	2420	761.451258501221	18
2	2421	762.077347500984	17
2	2425	762.40478556297	18
2	2426	763.278492253263	17
2	2431	765.078845257488	16
2	2435	766.019820224958	17
2	2437	766.324305776531	18
2	2438	766.966304761906	17
2	2441	768.565437469994	16
2	2445	768.847049916334	17
2	2446	770.255289360498	16
2	2450	771.595562093248	17
2	2451	772.127402553138	16
2	2455	772.530354379626	17
2	2457	773.334850258077	18
2	2458	773.408967712325	17
2	2461	775.167446971116	16
2	2465	775.487056644504	17
2	2466	776.609060886306	16
2	2470	776.819529970392	17
2	2471	777.899057253626	16
2	2475	778.225414091337	17
2	2476	779.892722929445	16
2	2480	780.390089758757	17
2	2481	781.422988131446	16
2	2485	782.539399920798	17
2	2486	783.106180223067	16
2	2490	783.119907789394	17
2	2492	784.936661649345	18
2	2493	785.070857653943	17
2	2497	785.134379767138	18
2	2499	786.313171453463	19
2	2500	786.768306066272	18
2	2504	786.840687597373	19
2	2506	787.417100884869	20
2	2508	788.33935087227	21
2	2509	788.396606675712	20
2	2513	788.530401324244	21
2	2514	790.290528343794	20
2	2517	791.718807780732	19
2	2521	792.881945430798	20
2	2522	793.393276716386	19
2	2526	793.666156221801	20
2	2527	795.017701390934	19
2	2530	796.619701489051	18
2	2534	796.659100583643	19
2	2536	797.823961385868	20
2	2537	797.980082524371	19
2	2540	799.433160961223	18
2	2544	799.557540288872	19
2	2546	799.995834205316	20
2	2548	800.58960886325	21
2	2549	801.332804839675	20
2	2552	802.957668292884	19
2	2556	804.324168212267	20
2	2557	804.825896109443	19
2	2560	806.375967427518	18
2	2564	807.406589381901	19
2	2565	807.837914158579	18
2	2569	809.062502659552	19
2	2571	809.224782566072	20
2	2572	809.569664984372	19
2	2576	810.196307606318	20
2	2577	811.110960678746	19
2	2581	811.184771231813	20
2	2583	811.649020933585	21
2	2585	811.801630796683	22
2	2586	812.856947929029	21
2	2590	813.305128594917	22
2	2591	814.138980376151	21
2	2594	815.848892787088	20
2	2598	816.309283527543	21
2	2599	817.627370702837	20
2	2603	818.529052949743	21
2	2604	819.473847261433	20
2	2608	820.455584199697	21
2	2609	821.40499695259	20
2	2613	822.174730650982	21
2	2614	823.036747286085	20
2	2618	823.695264032237	21
2	2619	824.734121446673	20
2	2623	825.133493330963	21
2	2625	826.12192712655	22
2	2627	826.393371126468	23
2	2628	826.712857786928	22
2	2632	826.838810827881	23
2	2633	828.063579135005	22
2	2637	828.501493999949	23
2	2638	830.005927385193	22
2	2642	830.824772131773	23
2	2643	831.375477704209	22
2	2647	831.921155431758	23
2	2648	833.010493664619	22
2	2652	833.785163310191	23
2	2653	834.334629162018	22
2	2657	834.760078484317	23
2	2658	835.578593567748	22
2	2662	836.343150837678	23
2	2663	837.379383534927	22
2	2666	838.83625386915	21
2	2670	839.865165001411	22
2	2671	840.558022821311	21
2	2674	841.788197803486	20
2	2678	842.629685699919	21
2	2680	843.511066186098	22
2	2681	843.717004575197	21
2	2684	845.255263066095	20
2	2688	846.528918535719	21
2	2690	846.826591633089	22
2	2691	846.868813017373	21
2	2694	848.483860374418	20
2	2698	849.67112631779	21
2	2699	849.927797655192	20
2	2703	850.256235045073	21
2	2704	851.630688980956	20
2	2707	853.543859153416	19
2	2711	853.905079399197	20
2	2713	854.735838252791	21
2	2714	855.11503633837	20
2	2718	855.434111906087	21
2	2720	856.023546118485	22
2	2722	856.056233137229	23
2	2724	856.072237940824	24
2	2725	856.529139895353	23
2	2728	858.323431102734	22
2	2732	858.409073560874	23
2	2734	858.946379013887	24
2	2736	859.721828489474	25
2	2738	859.869394942306	26
2	2739	859.971316459577	25
2	2743	860.880350350626	26
2	2744	861.578738154832	25
2	2748	862.022115420471	26
2	2750	862.564071445488	27
2	2752	863.301150709389	28
2	2753	863.332078741107	27
2	2756	865.002393166337	26
2	2760	865.503568475218	27
2	2762	866.15543154924	28
2	2763	866.671706600476	27
2	2767	867.204485273359	28
2	2770	868.425732944149	27
2	2774	869.348775071818	28
2	2775	870.288477443147	27
2	2781	871.302645299204	28
2	2783	871.533958526175	29
2	2784	871.599715109717	28
2	2788	872.396817256266	29
2	2789	872.903842283774	28
2	2793	873.41132118323	29
2	2794	874.206119032752	28
2	2798	874.213031961753	29
2	2800	874.72495566127	30
2	2801	875.650407378551	29
2	2805	876.086078646554	30
2	2806	877.117417804886	29
2	2809	878.387539124478	28
2	2812	879.969207372692	27
2	2816	880.00783305135	28
2	2817	881.326965771419	27
2	2820	883.264341121157	26
2	2823	885.171531430808	25
2	2827	885.570540030648	26
2	2829	885.731488903065	27
2	2830	887.163897952241	26
2	2833	888.371882949201	25
2	2837	889.086180109436	26
2	2838	889.719875603905	25
2	2842	890.267219893379	26
2	2844	890.541545296121	27
2	2845	891.40686112958	26
2	2849	891.918138331775	27
2	2851	892.258767110046	28
2	2853	892.389806735858	29
2	2855	892.998695904246	30
2	2856	893.362416844433	29
2	2860	894.588949638457	30
2	2861	894.877000676645	29
2	2864	896.779807309611	28
2	2867	898.099058328374	27
2	2871	898.823572306215	28
2	2872	899.313501257254	27
2	2875	901.261462381846	26
2	2879	901.571194270281	27
2	2880	903.027382010958	26
2	2886	903.705851922753	27
2	2888	904.646556926153	28
2	2889	904.962241703636	27
2	2893	905.390031947537	28
2	2895	906.244790926538	29
2	2896	906.937935386403	28
2	2899	908.772472947082	27
2	2903	909.544279002339	28
2	2904	910.183676984339	27
2	2908	910.638695841836	28
2	2909	911.706557118512	27
2	2913	911.968281239096	28
2	2915	912.210131166157	29
2	2917	913.184713798351	30
2	2918	913.192453972615	29
2	2922	914.303887845718	30
2	2924	914.826366837457	31
2	2925	914.850691392637	30
2	2929	915.701180533559	31
2	2930	916.407116390943	30
2	2934	917.389321911035	31
2	2936	917.659837440533	32
2	2937	918.247322153851	31
2	2941	919.035745155394	32
2	2942	920.03534224759	31
2	2946	920.261523768759	32
2	2948	920.869651156859	33
2	2949	921.522630557783	32
2	2953	922.214554085346	33
2	2954	923.347243727364	32
2	2960	924.335576481108	33
2	2961	924.599131211445	32
2	2965	924.986185965493	33
2	2967	926.017316969515	34
2	2968	926.447311083779	33
2	2972	927.557863301477	34
2	2973	928.132912818708	33
2	2977	928.306542167245	34
2	2979	929.409366412989	35
2	2980	929.496231182658	34
2	2983	930.74748272653	33
2	2989	931.87255976118	34
2	2991	931.887219850219	35
2	2992	932.304479224787	34
2	2996	932.99460685648	35
2	2997	933.836832123057	34
2	3001	934.117385396432	35
2	3002	935.724313589552	34
2	3006	935.772493428643	35
2	3008	936.431399417189	36
2	3009	937.011160205485	35
2	3013	937.015025076216	36
2	3014	938.24987794123	35
2	3018	939.120441341186	36
2	3019	939.831041621225	35
2	3023	940.847065241897	36
2	3025	941.004928349724	37
2	3026	941.141301251384	36
2	3030	941.606787961963	37
2	3031	942.720606877091	36
2	3034	944.070697802486	35
2	3038	945.385260601576	36
2	3040	945.397726744921	37
2	3042	945.71458693801	38
2	3044	945.800855297668	39
2	3045	945.80161802824	38
2	3049	947.293573880239	39
2	3050	947.430763733754	38
2	3054	947.664584206009	39
2	3055	949.021579967434	38
2	3058	950.51026141047	37
2	3062	950.824311098789	38
2	3063	951.732212302456	37
2	3067	952.469783786059	38
2	3069	952.880155461976	39
2	3070	953.335691119166	38
2	3073	954.940469072195	37
2	3077	955.162310575257	38
2	3078	956.314688486228	37
2	3082	957.175801914521	38
2	3083	957.979348860117	37
2	3087	958.544283022876	38
2	3089	959.507274089778	39
2	3090	959.725367914507	38
2	3094	960.049215257014	39
2	3095	961.126648817392	38
2	3099	962.470820079591	39
2	3100	963.096933485003	38
2	3103	964.563134836959	37
2	3107	965.825383275934	38
2	3108	966.05153808556	37
2	3114	967.763898923753	38
2	3115	967.807101115766	37
2	3119	967.819904895012	38
2	3121	968.423065256138	39
2	3122	969.325740246843	38
2	3125	970.609657517444	37
2	3129	970.738138854509	38
2	3131	972.079680496057	39
2	3132	972.592605837058	38
2	3136	973.696257427077	39
2	3137	973.889860677529	38
2	3141	975.324556414541	39
2	3142	975.462476273622	38
2	3148	975.922844991449	39
2	3149	977.446080403771	38
2	3153	977.541500717207	39
2	3156	978.714116881411	38
2	3160	979.268024010641	39
2	3161	980.40111683141	38
2	3166	982.127901775386	37
2	3169	983.515530865077	36
2	3172	985.059096139479	35
2	3176	985.731664838785	36
2	3177	986.71258653346	35
2	3181	986.773766280636	36
2	3183	987.707942470433	37
2	3184	987.969575691219	36
2	3188	988.378071810714	37
2	3189	989.827452885728	36
2	3193	990.611255529957	37
2	3195	990.960974110578	38
2	3196	991.708412436764	37
2	3200	991.889267167272	38
2	3201	993.331842234913	37
2	3205	993.48754055029	38
2	3206	995.001817175183	37
2	3209	996.488034773428	36
2	3213	996.88593552699	37
2	3214	998.2785568146	36
2	3217	999.764690560285	35
2	3221	1001.569935307069	36
2	3222	1001.599848592464	35
2	3226	1001.815360544742	36
2	3227	1003.075176966932	35
2	3231	1003.154817027879	36
2	3232	1004.588159632121	35
2	3235	1005.823938830753	34
2	3239	1006.132587969471	35
2	3240	1007.745671906692	34
2	3244	1008.097618201777	35
2	3245	1009.688662353341	34
2	3249	1009.932232897622	35
2	3251	1011.062524093673	36
2	3252	1011.318269800205	35
2	3256	1011.851031579886	36
2	3258	1012.12366078451	37
2	3259	1012.818517587144	36
2	3262	1014.062432260994	35
2	3266	1014.49292754477	36
2	3268	1015.012180224687	37
2	3269	1015.40815700404	36
2	3273	1016.46159508683	37
2	3274	1017.298493806269	36
2	3278	1018.001259515463	37
2	3280	1018.517449094168	38
2	3281	1018.65646690223	37
2	3284	1019.945196834017	36
2	3288	1020.094969913037	37
2	3290	1021.011848396818	38
2	3291	1021.455426905673	37
2	3294	1022.725838443074	36
2	3298	1022.881728916572	37
2	3299	1024.119943483915	36
2	3302	1025.510559006404	35
2	3307	1027.313982657153	34
2	3311	1028.351451751056	35
2	3313	1028.388556194272	36
2	3314	1028.646566127051	35
2	3317	1030.350053569671	34
2	3321	1031.190747964967	35
2	3325	1031.791364205503	36
2	3327	1031.867763445452	37
2	3328	1032.177104009498	36
2	3332	1032.456452003914	37
2	3333	1034.136751581911	36
2	3336	1035.48038663156	35
2	3340	1035.808311313997	36
2	3342	1036.760535263231	37
2	3343	1036.958982414004	36
2	3347	1037.85840389378	37
2	3348	1038.322163656537	36
2	3351	1039.572166908343	35
2	3355	1039.625064652644	36
2	3357	1040.858525265484	37
2	3358	1040.999059797075	36
2	3362	1041.592299712184	37
2	3363	1042.496926599738	36
2	3367	1042.533667940373	37
2	3369	1042.542816587728	38
2	3371	1043.243570858583	39
2	3372	1044.177892475386	38
2	3376	1044.186963138177	39
2	3377	1045.618446784836	38
2	3380	1047.071582479958	37
2	3383	1048.356564944421	36
2	3387	1048.406985503745	37
2	3388	1049.69497611541	36
2	3391	1051.232408365791	35
2	3395	1051.654350265895	36
2	3396	1052.619279298184	35
2	3400	1053.032308113128	36
2	3401	1054.231221736034	35
2	3405	1054.409156371314	36
2	3407	1054.827958621705	37
2	3408	1055.697921474089	36
2	3412	1057.057867958705	37
2	3413	1057.159369356182	36
2	3416	1058.584746262242	35
2	3420	1059.136402056322	36
2	3422	1059.535269075948	37
2	3423	1060.572611806911	36
2	3427	1060.661918832768	37
2	3428	1062.185359610428	36
2	3432	1063.792514132453	37
2	3433	1064.031650422883	36
2	3437	1064.306592259633	37
2	3440	1065.378281914067	36
2	3444	1066.332320219803	37
2	3445	1066.924391413291	36
2	3449	1067.869724596748	37
2	3450	1068.347328451459	36
2	3453	1069.936203364652	35
2	3457	1070.115347702596	36
2	3459	1071.472967758783	37
2	3460	1071.589056269262	36
2	3464	1073.231233896671	37
2	3465	1073.533107007664	36
2	3468	1074.805623811852	35
2	3471	1076.212796382788	34
2	3475	1076.649687078105	35
2	3477	1077.083285859631	36
2	3478	1078.09348631091	35
2	3482	1078.181888591612	36
2	3483	1079.635927883345	35
2	3487	1080.569348283506	36
2	3488	1081.3912904432	35
2	3492	1082.716285852831	36
2	3493	1082.942796006794	35
2	3497	1082.988173047811	36
2	3501	1083.944119863742	37
2	3502	1084.39397163074	36
2	3506	1084.893701025757	37
2	3507	1086.106927758078	36
2	3511	1086.403648010254	37
2	3512	1087.623826567451	36
2	3515	1088.919121495629	35
2	3519	1089.172726221728	36
2	3520	1090.308415996092	35
2	3524	1091.48399980168	36
2	3525	1092.0623338215	35
2	3528	1093.364891284699	34
2	3532	1093.49136131614	35
2	3534	1094.533626956374	36
2	3535	1095.30355685241	35
2	3538	1096.546812915797	34
2	3541	1098.190327968071	33
2	3545	1099.24279568744	34
2	3546	1099.516518213595	33
2	3550	1099.865355741443	34
2	3552	1100.112990873976	35
2	3553	1100.731459786179	34
2	3558	1102.542369139934	33
2	3561	1103.808898444841	32
2	3565	1104.097322308076	33
2	3566	1105.103508944432	32
2	3570	1106.25242067132	33
2	3572	1106.486745918802	34
2	3573	1106.713354948903	33
2	3577	1107.98892162227	34
2	3579	1108.481109444799	35
2	3580	1108.575373452338	34
2	3584	1109.732913614723	35
2	3585	1109.786807493488	34
2	3589	1110.685447898891	35
2	3590	1111.600448844204	34
2	3594	1112.833966485603	35
2	3595	1113.272578851315	34
2	3599	1113.636084689478	35
2	3600	1114.67797873504	34
2	3604	1115.533039782023	35
2	3605	1116.002572599794	34
2	3609	1116.841226804312	35
2	3611	1117.16277589692	36
2	3612	1117.517880632538	35
2	3616	1118.00774380938	36
2	3617	1119.326005041223	35
2	3620	1120.907512491193	34
2	3624	1122.120826314039	35
2	3626	1122.166369092903	36
2	3627	1122.26753998771	35
2	3631	1123.094958849285	36
2	3632	1123.497879908231	35
2	3636	1123.659549851836	36
2	3637	1125.417197091688	35
2	3640	1127.161160726656	34
2	3644	1128.022878647837	35
2	3645	1128.679596297626	34
2	3651	1129.497247558907	35
2	3652	1130.123667718839	34
2	3656	1130.802436918519	35
2	3657	1131.997605932128	34
2	3661	1132.954582369534	35
2	3662	1133.334871616025	34
2	3666	1133.948299155226	35
2	3667	1135.22888717502	34
2	3671	1135.582754142261	35
2	3672	1136.759618379358	34
2	3676	1136.887470809489	35
2	3677	1138.49251108225	34
2	3680	1139.807868825826	33
2	3684	1139.986083263285	34
2	3686	1140.817301931331	35
2	3687	1141.561625674362	34
2	3691	1141.570459992949	35
2	3692	1143.380938380579	34
2	3696	1144.389245113613	35
2	3697	1145.047791705648	34
2	3700	1146.720323769929	33
2	3704	1146.74318775313	34
2	3706	1147.471161030198	35
2	3707	1148.013121620933	34
2	3710	1149.888202604646	33
2	3714	1150.989755760495	34
2	3715	1151.28109421357	33
2	3719	1152.433644906901	34
2	3720	1152.849342093612	33
2	3724	1152.922050894899	34
2	3726	1154.141852525867	35
2	3728	1154.500207341191	36
2	3729	1154.846741949948	35
2	3733	1154.884840392158	36
2	3735	1156.006899251597	37
2	3736	1156.163159299823	36
2	3739	1157.682166022057	35
2	3743	1158.702650597736	36
2	3745	1159.066569916136	37
2	3746	1159.484547971556	36
2	3750	1159.745946070923	37
2	3751	1161.085589533666	36
2	3754	1162.505663883494	35
2	3758	1163.343018682775	36
2	3759	1164.475544313708	35
2	3763	1164.665513688173	36
2	3765	1164.856213855302	37
2	3766	1165.757572225103	36
2	3770	1166.454208226509	37
2	3771	1167.278150398092	36
2	3774	1168.892893218802	35
2	3777	1170.46250760238	34
2	3780	1172.448786522069	33
2	3784	1172.795136935128	34
2	3785	1173.894397178099	33
2	3789	1173.96655005443	34
2	3791	1174.139363724269	35
2	3792	1175.133337217004	34
2	3796	1175.519218844469	35
2	3798	1175.522155978622	36
2	3800	1176.38066926944	37
2	3801	1176.740532741503	36
2	3805	1177.549491958583	37
2	3806	1178.195025433407	36
2	3810	1178.649331204709	37
2	3811	1179.833881766529	36
2	3815	1181.678641799357	37
2	3816	1181.821989353181	36
2	3820	1182.003964091643	37
2	3821	1183.213171209947	36
2	3824	1184.87146255336	35
2	3827	1186.34193645864	34
2	3831	1187.052801015721	35
2	3832	1187.548670612082	34
2	3836	1188.117116695592	35
2	3837	1189.376254385889	34
2	3841	1189.77144464945	35
2	3843	1190.987882890975	36
2	3844	1191.015208172232	35
2	3848	1191.359812516929	36
2	3850	1191.835849300194	37
2	3851	1192.999796655022	36
2	3855	1193.60934573369	37
2	3856	1194.679393604204	36
2	3860	1195.807764486406	37
2	3861	1196.667543231316	36
2	3864	1197.970357388996	35
2	3867	1199.380593659722	34
2	3870	1201.36723550427	33
2	3874	1201.963258285901	34
2	3876	1202.049419158278	35
2	3877	1202.863051530153	34
2	3881	1203.915188829738	35
2	3882	1204.332223143235	34
2	3886	1204.796320572442	35
2	3887	1205.870471092492	34
2	3891	1206.613174469769	35
2	3893	1206.683489790687	36
2	3894	1207.072556406997	35
2	3898	1207.195725167419	36
2	3899	1208.365609297894	35
2	3903	1208.571836117492	36
2	3904	1210.114282830983	35
2	3908	1210.351539133754	36
2	3910	1210.600640002408	37
2	3911	1211.90960128083	36
2	3915	1212.60401067332	37
2	3916	1213.744956172994	36
2	3920	1214.079561526069	37
2	3921	1214.958443796067	36
2	3925	1215.793237791194	37
2	3926	1216.863882635711	36
2	3930	1217.964720394858	37
2	3931	1218.221023394158	36
2	3934	1219.63435511644	35
2	3938	1219.948986064971	36
2	3939	1221.619287344618	35
2	3942	1223.366274877442	34
2	3946	1224.868737677814	35
2	3947	1225.18897017072	34
2	3950	1226.838445447376	33
2	3954	1227.901168690386	34
2	3955	1228.141958655221	33
2	3959	1228.725343757159	34
2	3961	1228.917502445686	35
2	3962	1229.434287097109	34
2	3966	1229.630640733476	35
2	3967	1230.688565019508	34
2	3971	1230.878113863593	35
2	3972	1232.069849571203	34
2	3976	1233.164381282141	35
2	3977	1233.873056359952	34
2	3981	1234.603789366328	35
2	3982	1235.348788390485	34
2	3986	1235.797746781429	35
2	3987	1236.774605220546	34
2	3991	1237.391937719411	35
2	3995	1238.460759015836	36
2	3996	1238.601553871286	35
2	3999	1239.893599158888	34
2	4003	1241.222011459199	35
2	4004	1241.297683114176	34
2	4008	1242.237722660966	35
2	4009	1243.112791569335	34
2	4012	1244.58106505814	33
2	4016	1245.608166935984	34
2	4017	1245.835220454624	33
2	4020	1247.783062135978	32
2	4024	1249.324681283975	33
2	4026	1249.704352015201	34
2	4027	1249.761191565721	33
2	4031	1250.537582860173	34
2	4032	1251.09874659217	33
2	4036	1251.928677139865	34
2	4037	1252.879299533731	33
2	4040	1254.14998057819	32
2	4044	1254.206300033987	33
2	4045	1255.639829522362	32
2	4049	1257.425755018635	33
2	4050	1257.517536044857	32
2	4054	1259.070371056282	33
2	4055	1259.159065991259	32
2	4059	1259.740364420544	33
2	4061	1259.972207850654	34
2	4062	1260.64479022286	33
2	4066	1260.893523967214	34
2	4067	1262.065212607375	33
2	4071	1262.35324191978	34
2	4072	1263.707347419477	33
2	4076	1263.825154125858	34
2	4077	1264.914220378539	33
2	4081	1265.345238493329	34
2	4082	1266.893576902887	33
2	4086	1268.20223374358	34
2	4087	1268.417932315162	33
2	4091	1269.037107017103	34
2	4093	1269.082447603525	35
2	4095	1269.189648205791	36
2	4096	1269.980421872987	35
2	4100	1270.002869677079	36
2	4101	1271.274328378765	35
2	4105	1271.328708743658	36
2	4106	1272.490518077267	35
2	4109	1273.714602750716	34
2	4113	1275.437661519121	35
2	4114	1275.605825186511	34
2	4117	1277.37437793537	33
2	4120	1278.926836387058	32
2	4124	1280.138817215216	33
2	4125	1280.206373683726	32
2	4129	1280.213637878645	33
2	4131	1281.402590017943	34
2	4132	1282.111043888693	33
2	4138	1282.48865680668	34
2	4140	1282.570613209413	35
2	4142	1282.933407100056	36
2	4143	1283.410497004156	35
2	4147	1283.51089771746	36
2	4148	1285.368830029284	35
2	4151	1286.609945219	34
2	4154	1287.948354124454	33
2	4158	1288.090998012358	34
2	4160	1289.184219146787	35
2	4161	1289.480089098205	34
2	4165	1290.293995583773	35
2	4166	1291.038886581351	34
2	4169	1292.243478791219	33
2	4172	1293.884944247444	32
2	4176	1294.385823306463	33
2	4178	1294.861992991004	34
2	4179	1295.188043771488	33
2	4183	1296.403730093656	34
2	4186	1296.843813192648	33
2	4189	1298.179907946651	32
2	4193	1298.516300826957	33
2	4194	1300.009142558453	32
2	4198	1300.271709502334	33
2	4199	1301.582353551303	32
2	4203	1301.819397035	33
2	4206	1303.015403066379	32
2	4210	1303.530265048163	33
2	4212	1303.679850774487	34
2	4214	1304.775523681133	35
2	4215	1304.937135270228	34
2	4219	1305.376824051003	35
2	4220	1306.743773330552	34
2	4224	1307.820645881	35
2	4225	1308.299209110615	34
2	4229	1308.507331399763	35
2	4231	1309.680234440108	36
2	4232	1309.776589790722	35
2	4236	1311.030542944966	36
2	4237	1311.144433267777	35
2	4241	1311.253772276457	36
2	4243	1312.579462979368	37
2	4245	1312.596543474834	38
2	4246	1312.622276651663	37
2	4250	1312.896251236977	38
2	4251	1313.861441772421	37
2	4255	1314.812802665165	38
2	4256	1315.276254515712	37
2	4260	1316.827476749473	38
2	4262	1316.865799455142	39
2	4263	1317.073667548028	38
2	4267	1318.833131565639	39
2	4268	1319.016744355475	38
2	4272	1319.494843247858	39
2	4274	1320.151353110638	40
2	4275	1320.795486063128	39
2	4279	1321.561740268735	40
2	4280	1322.712496714098	39
2	4284	1323.038190585485	40
2	4286	1324.199869213827	41
2	4287	1324.241726103602	40
2	4291	1324.616340387954	41
2	4293	1325.194203564395	42
2	4295	1325.646361676227	43
2	4296	1326.165974208331	42
2	4300	1326.584810444547	43
2	4302	1327.117766937432	44
2	4303	1327.822330942555	43
2	4307	1328.379492037306	44
2	4308	1329.215691399193	43
2	4312	1330.415408719033	44
2	4313	1331.033254352762	43
2	4317	1331.132774678347	44
2	4318	1332.88922663535	43
2	4321	1334.446364040477	42
2	4325	1335.548790002553	43
2	4326	1335.796373101873	42
2	4329	1337.699767862437	41
2	4333	1338.19159090623	42
2	4336	1339.265386468908	41
2	4340	1340.515037472715	42
2	4341	1340.984774724571	41
2	4345	1342.040565464289	42
2	4347	1342.188580031555	43
2	4348	1342.521531901499	42
2	4352	1342.753099039758	43
2	4353	1344.013214667504	42
2	4356	1345.7933859378	41
2	4360	1346.188466155187	42
2	4361	1347.618168195141	41
2	4364	1349.446355312867	40
2	4368	1349.561732731219	41
2	4370	1350.604512323878	42
2	4371	1351.390767014762	41
2	4375	1352.178230457462	42
2	4376	1352.847135619623	41
2	4380	1353.925598758874	42
2	4381	1354.725805173432	41
2	4385	1356.428824283944	42
2	4386	1356.516759697897	41
2	4390	1357.60073465737	42
2	4391	1357.869382183058	41
2	4395	1358.238375557807	42
2	4396	1359.666995575083	41
2	4399	1361.440531795276	40
2	4403	1361.719854169998	41
2	4405	1361.739781478096	42
2	4407	1362.778316105489	43
2	4408	1363.141918438105	42
2	4412	1363.407178672042	43
2	4413	1364.839140265426	42
2	4417	1365.953998723567	43
2	4420	1366.669030866763	42
2	4424	1367.174799254116	43
2	4426	1367.833891134153	44
2	4427	1368.193562079585	43
2	4431	1369.666198366548	44
2	4432	1369.949040429844	43
2	4436	1370.892087971362	44
2	4437	1371.367944828598	43
2	4440	1373.134686970702	42
2	4444	1374.363895691833	43
2	4445	1375.002939911923	42
2	4448	1376.631150983824	41
2	4452	1376.869464381988	42
2	4454	1377.053398857419	43
2	4456	1377.143323857385	44
2	4457	1378.02099235951	43
2	4461	1378.668141746266	44
2	4463	1379.214050545481	45
2	4464	1379.615424934952	44
2	4467	1381.234716797797	43
2	4470	1382.46879700887	42
2	4474	1382.539273105937	43
2	4476	1383.238796586992	44
2	4477	1384.440344292661	43
2	4481	1385.228241445684	44
2	4483	1385.720396329075	45
2	4484	1386.385531662395	44
2	4488	1387.535824309325	45
2	4489	1387.691553432112	44
2	4493	1388.678280102714	45
2	4494	1389.057101950785	44
2	4498	1389.985206974434	45
2	4501	1390.998871759502	44
2	4505	1391.023377951527	45
2	4506	1392.861925815409	44
2	4510	1392.944453266346	45
2	4511	1394.529718931755	44
2	4515	1396.054167456344	45
2	4516	1396.11588652133	44
2	4519	1397.873068016572	43
2	4523	1398.171837512793	44
2	4524	1399.151977723828	43
2	4528	1399.170440437754	44
2	4529	1400.701907909653	43
2	4533	1401.260457189987	44
2	4535	1401.843536640071	45
2	4536	1402.634135732791	44
2	4540	1403.021814754566	45
2	4541	1404.079585537678	44
2	4544	1405.641401944859	43
2	4548	1406.728381279912	44
2	4549	1407.332145308508	43
2	4553	1407.357557241463	44
2	4555	1408.519512669867	45
2	4556	1408.982456010944	44
2	4559	1410.462109033382	43
2	4563	1411.612662027981	44
2	4564	1411.883512273422	43
2	4567	1413.114712969019	42
2	4571	1413.21700539894	43
2	4573	1413.370878890437	44
2	4574	1414.583232199951	43
2	4577	1416.517789292141	42
2	4581	1416.817712398185	43
2	4582	1418.296975008204	42
2	4585	1419.865005803659	41
2	4589	1420.009921176957	42
2	4590	1421.630478305175	41
2	4594	1422.857061694354	42
2	4595	1423.11542650032	41
2	4599	1424.169970696874	42
2	4600	1424.710669262513	41
2	4604	1425.155339556449	42
2	4606	1426.287438465206	43
2	4607	1426.62485268376	42
2	4611	1428.136429644659	43
2	4612	1428.399259845346	42
2	4616	1429.436911160664	43
2	4617	1429.837880627058	42
2	4620	1431.833793315097	41
2	4624	1432.898238010571	42
2	4625	1433.322097709208	41
2	4628	1434.566691576495	40
2	4632	1435.60458239332	41
2	4633	1436.089396236642	40
2	4636	1437.482289653635	39
2	4640	1437.754610504889	40
2	4641	1438.785217219023	39
2	4645	1439.326706853857	40
2	4647	1439.352197107401	41
2	4648	1440.461283132238	40
2	4652	1440.857084709969	41
2	4653	1442.093203920861	40
2	4656	1443.758013727878	39
2	4660	1443.824300433121	40
2	4662	1444.76026024499	41
2	4663	1445.293308166777	40
2	4667	1445.568835042706	41
2	4669	1445.826166640744	42
2	4670	1446.847116017332	41
2	4674	1448.458227570735	42
2	4675	1448.752669699108	41
2	4679	1450.209634633467	42
2	4680	1450.455515577448	41
2	4684	1451.474543590626	42
2	4685	1452.30663126762	41
2	4689	1452.341064710445	42
2	4690	1454.056694024419	41
2	4693	1455.67087007462	40
2	4697	1456.180630845171	41
2	4698	1457.207019673278	40
2	4701	1458.741607249705	39
2	4705	1459.029122754911	40
2	4706	1460.249943061909	39
2	4709	1461.687667623712	38
2	4713	1462.682119738869	39
2	4714	1462.945796057387	38
2	4717	1464.650920549213	37
2	4721	1465.931726286746	38
2	4722	1466.224956159099	37
2	4725	1467.962980098083	36
2	4729	1468.388753983378	37
2	4730	1469.918493787005	36
2	4733	1471.417196900017	35
2	4739	1472.880783526894	36
2	4741	1472.894350610912	37
2	4743	1472.96840646119	38
2	4744	1473.236438216447	37
2	4748	1474.221670898659	38
2	4749	1474.967157179109	37
2	4753	1475.033891822222	38
2	4755	1476.120406417226	39
2	4756	1476.708136582366	38
2	4760	1476.758729512597	39
2	4761	1478.571464325293	38
2	4765	1479.325250383097	39
2	4766	1479.794119270883	38
2	4770	1480.868849657816	39
2	4771	1481.45849317386	38
2	4775	1481.831363164408	39
2	4776	1483.358024216063	38
2	4780	1483.711447155371	39
2	4781	1485.037379774816	38
2	4785	1486.04608983454	39
2	4786	1486.652478631764	38
2	4789	1487.988187828652	37
2	4793	1488.286837343187	38
2	4795	1488.958650999358	39
2	4796	1489.870317780405	38
2	4800	1490.409366967653	39
2	4801	1491.407696729704	38
2	4804	1493.024488812118	37
2	4807	1494.742142564609	36
2	4810	1496.363453213676	35
2	4813	1498.233658766738	34
2	4817	1499.18447244961	35
2	4818	1499.715609937339	34
2	4821	1501.588742250754	33
2	4824	1503.57893841601	32
2	4827	1504.929388623117	31
2	4831	1506.460849772517	32
2	4833	1506.725140883913	33
2	4834	1506.894380631848	32
2	4837	1508.39476453214	31
2	4841	1509.871170076285	32
2	4842	1509.881745947516	31
2	4845	1511.340823452166	30
2	4848	1513.018260935685	29
2	4851	1514.408565691663	28
2	4855	1515.785877945287	29
2	4856	1515.927274384899	28
2	4859	1517.459972373201	27
2	4863	1518.473420956919	28
2	4864	1519.203937606318	27
2	4869	1520.588890257655	26
2	4872	1522.078102979055	25
2	4876	1523.82309648411	26
2	4877	1524.045563697247	25
2	4881	1524.772154285826	26
2	4883	1525.320387300167	27
2	4885	1525.327709839082	28
2	4886	1525.755747849113	27
2	4890	1526.124034025971	28
2	4891	1526.998849982201	27
2	4895	1527.299236111852	28
2	4896	1528.821107700645	27
2	4900	1529.143865315716	28
2	4902	1529.766880655561	29
2	4903	1530.715600274681	28
2	4907	1530.93279157962	29
2	4908	1532.276314301594	28
2	4912	1532.844715390784	29
2	4914	1533.140473517536	30
2	4915	1533.482268067255	29
2	4919	1533.717506296771	30
2	4920	1534.721166121393	29
2	4923	1536.165502399012	28
2	4927	1537.201370233022	29
2	4928	1537.883822279788	28
2	4932	1538.305408882731	29
2	4934	1538.44583018843	30
2	4935	1539.111273767046	29
2	4939	1539.798428915066	30
2	4940	1540.348665515139	29
2	4944	1540.935239234933	30
2	4946	1541.794017273831	31
2	4947	1541.83411312177	30
2	4951	1541.921810289096	31
2	4952	1543.142444852359	30
2	4956	1543.908234917023	31
2	4958	1544.568347197458	32
2	4960	1544.609120371155	33
2	4961	1544.88920642323	32
2	4964	1546.538501066334	31
2	4968	1547.612458844781	32
2	4969	1548.489242193281	31
2	4973	1548.953195335085	32
2	4975	1549.634589176803	33
2	4976	1550.061296073525	32
2	4980	1550.255110459402	33
2	4982	1550.925584801266	34
2	4983	1551.878519893615	33
2	4987	1553.550631299733	34
2	4988	1553.703356805621	33
2	4992	1554.985607983392	34
2	4993	1555.543458994096	33
2	4996	1557.078661430245	32
2	5000	1557.809951818257	33
2	5001	1558.705783151081	32
2	5005	1559.766280759894	33
2	5006	1560.221406374676	32
2	5009	1561.866377765303	31
2	5013	1562.588638865308	32
2	5014	1563.519231822518	31
2	5018	1563.838558961328	32
2	5019	1565.004141469476	31
2	5023	1565.109424026296	32
2	5025	1566.429982866841	33
2	5026	1566.559272703518	32
2	5029	1567.911934412633	31
2	5033	1569.198446687093	32
2	5034	1569.739747226042	31
2	5037	1571.722659758841	30
2	5041	1573.206182509611	31
2	5042	1573.568033377071	30
2	5046	1574.261195773534	31
2	5047	1575.068589915139	30
2	5050	1576.406378873428	29
2	5054	1576.800744925272	30
2	5056	1577.044633149557	31
2	5057	1578.36105663645	30
2	5061	1578.836794406198	31
2	5062	1580.046884230887	30
2	5066	1580.300448751821	31
2	5067	1581.327715885443	30
2	5071	1581.917335337239	31
2	5073	1582.270781467589	32
2	5074	1582.81231979913	31
2	5077	1584.08509886003	30
2	5082	1585.757794258547	29
2	5085	1587.058756365989	28
2	5089	1587.534770358098	29
2	5091	1587.701659549326	30
2	5093	1588.632586599534	31
2	5094	1588.788658152324	30
2	5097	1590.485101325241	29
2	5100	1591.753061508005	28
2	5104	1592.261395117425	29
2	5105	1593.501444819932	28
2	5109	1594.390472996013	29
2	5112	1594.997443616008	28
2	5116	1595.699998862402	29
2	5118	1596.588121683665	30
2	5119	1596.786389024173	29
2	5123	1597.462777770562	30
2	5124	1598.516876346794	29
2	5127	1600.288004517545	28
2	5131	1600.476636680132	29
2	5133	1600.610635746254	30
2	5135	1601.865040126224	31
2	5137	1601.994973688278	32
2	5138	1602.087192552899	31
2	5142	1603.347210592066	32
2	5143	1603.868048481447	31
2	5147	1603.949458713994	32
2	5149	1604.138263795709	33
2	5151	1605.137967974524	34
2	5152	1605.519681377326	33
2	5156	1606.871135546385	34
2	5157	1606.874573157531	33
2	5161	1607.302204043167	34
2	5163	1607.647232463914	35
2	5164	1608.381115534332	34
2	5167	1610.014360415925	33
2	5171	1610.02591555594	34
2	5173	1610.4873157681	35
2	5175	1611.237453408618	36
2	5176	1611.722250879732	35
2	5180	1612.444612741848	36
2	5182	1612.49438427487	37
2	5183	1613.437776623842	36
2	5186	1614.91662116683	35
2	5190	1615.730719712858	36
2	5192	1615.794498909077	37
2	5193	1616.149009491866	36
2	5197	1616.291330997454	37
2	5199	1616.693775458426	38
2	5200	1618.087691834373	37
2	5203	1619.348909174269	36
2	5206	1620.588397079138	35
2	5210	1622.068874623668	36
2	5212	1622.142446361251	37
2	5213	1622.439125760449	36
2	5217	1622.566618011335	37
2	5218	1624.189506841069	36
2	5221	1626.185249142153	35
2	5225	1627.876141074369	36
2	5226	1628.155771807013	35
2	5229	1629.868786405763	34
2	5235	1631.140521633158	35
2	5237	1631.330179666716	36
2	5238	1631.764198052315	35
2	5242	1631.868940816547	36
2	5243	1633.437511111787	35
2	5247	1633.801104253796	36
2	5250	1635.262685404895	35
2	5254	1635.529480769431	36
2	5255	1636.525387836238	35
2	5258	1637.732050768649	34
2	5262	1637.757308631741	35
2	5265	1639.063150275117	34
2	5269	1639.482768099577	35
2	5271	1640.409158831731	36
2	5272	1640.461191561809	35
2	5276	1640.580585522953	36
2	5277	1641.896401822372	35
2	5281	1643.039462607502	36
2	5282	1643.278410224794	35
2	5285	1645.097369397795	34
2	5289	1645.430579994296	35
2	5290	1646.82294267322	34
2	5293	1648.461280206023	33
2	5296	1650.274350150107	32
2	5300	1651.031123730129	33
2	5302	1651.5937252643	34
2	5303	1651.675414347826	33
2	5307	1651.683407339238	34
2	5309	1652.134704096984	35
2	5310	1653.521355707376	34
2	5314	1653.932682793534	35
2	5315	1655.203591174624	34
2	5319	1655.363934007755	35
2	5320	1656.647699857309	34
2	5324	1656.969000587561	35
2	5325	1658.565727163098	34
2	5328	1659.998180401131	33
2	5332	1661.309177832855	34
2	5333	1661.318057955048	33
2	5337	1661.888219692932	34
2	5339	1662.295349658309	35
2	5340	1662.697972676522	34
2	5344	1663.403282486804	35
2	5345	1664.655261877357	34
2	5349	1665.009108261708	35
2	5350	1666.401596413172	34
2	5354	1667.103119911143	35
2	5355	1668.112999090544	34
2	5359	1668.650728154816	35
2	5360	1670.110836965582	34
2	5363	1671.759939675211	33
2	5367	1671.768629490498	34
2	5369	1672.411037567238	35
2	5372	1672.978483141019	34
2	5376	1673.031228371938	35
2	5377	1674.43232482168	34
2	5381	1675.037539910056	35
2	5382	1676.198780268609	34
2	5386	1676.658931462896	35
2	5388	1677.417247504659	36
2	5389	1677.441402504771	35
2	5393	1677.445015012992	36
2	5395	1678.572459291763	37
2	5396	1679.157064132757	36
2	5400	1680.455273374866	37
2	5401	1680.996792249374	36
2	5405	1681.19269135405	37
2	5406	1682.819201521568	36
2	5409	1684.595265706807	35
2	5413	1685.420376213525	36
2	5415	1685.86312010083	37
2	5416	1686.269839973367	36
2	5419	1688.051846414051	35
2	5422	1689.640600161805	34
2	5426	1690.239609545723	35
2	5428	1690.451577844748	36
2	5429	1691.230435782104	35
2	5433	1691.32719217044	36
2	5435	1691.382992308312	37
2	5436	1692.879889870799	36
2	5440	1693.091627880621	37
2	5441	1694.536728081657	36
2	5445	1694.857004851147	37
2	5447	1695.133773214858	38
2	5448	1695.954286894007	37
2	5451	1697.820887394427	36
2	5455	1697.823774777596	37
2	5457	1697.829613565108	38
2	5459	1698.608424118891	39
2	5460	1699.140855344004	38
2	5463	1700.750226317897	37
2	5466	1702.742664886817	36
2	5470	1702.765914290498	37
2	5472	1702.980801926742	38
2	5473	1704.654337634883	37
2	5477	1704.745856060949	38
2	5478	1706.606134805448	37
2	5482	1706.665726349764	38
2	5483	1708.140124043069	37
2	5486	1709.459437613926	36
2	5489	1711.097781832694	35
2	5493	1711.845446861701	36
2	5495	1712.97183473524	37
2	5496	1712.979196144073	36
2	5499	1714.784260806433	35
2	5502	1716.400823633364	34
2	5505	1717.647661656691	33
2	5509	1717.680871855889	34
2	5511	1717.855615996016	35
2	5512	1718.925844495362	34
2	5516	1719.038358225895	35
2	5518	1719.439337336563	36
2	5520	1719.980326392591	37
2	5521	1720.826944039381	36
2	5525	1722.234531717197	37
2	5526	1722.605162536903	36
2	5530	1723.008425932171	37
2	5531	1724.351404703027	36
2	5535	1725.650341470592	37
2	5537	1726.137916932411	38
2	5538	1726.212759984089	37
2	5542	1727.537157281524	38
2	5543	1728.026726033902	37
2	5547	1729.052823030332	38
2	5549	1729.332840290137	39
2	5550	1729.555537568582	38
2	5554	1729.941507750354	39
2	5555	1730.877261118768	38
2	5559	1731.838833007714	39
2	5560	1732.626304171412	38
2	5564	1733.274845680011	39
2	5565	1734.113067697352	38
2	5569	1734.79060674355	39
2	5570	1735.783160872376	38
2	5574	1736.498612468475	39
2	5575	1737.575070096171	38
2	5579	1738.800635676164	39
2	5580	1739.137871430247	38
2	5583	1740.829537985093	37
2	5587	1740.91439438943	38
2	5589	1741.315697893816	39
2	5591	1741.795412260984	40
2	5592	1742.552217234104	39
2	5596	1742.9015896396	40
2	5598	1742.928102908189	41
2	5599	1744.176002172559	40
2	5603	1744.501132411788	41
2	5606	1746.046233922794	40
2	5610	1747.088831040586	41
2	5612	1747.704492977355	42
2	5613	1747.886459211438	41
2	5617	1748.716335460157	42
2	5618	1749.668596057772	41
2	5621	1750.97309165652	40
2	5624	1752.210119004539	39
2	5628	1752.371020121592	40
2	5630	1752.455641512947	41
2	5631	1753.739131443939	40
2	5635	1754.769941837413	41
2	5636	1755.395598607688	40
2	5639	1756.666931311964	39
2	5642	1758.660321182377	38
2	5646	1759.089283689549	39
2	5648	1759.283639204007	40
2	5649	1760.192211770072	39
2	5653	1760.588082810087	40
2	5655	1760.764829371515	41
2	5656	1761.507115929007	40
2	5660	1762.349933089003	41
2	5661	1763.448750368684	40
2	5665	1763.844584548523	41
2	5667	1764.516396602644	42
2	5669	1764.59825798424	43
2	5670	1764.966675272017	42
2	5673	1766.171617946952	41
2	5677	1767.237380477568	42
2	5678	1767.861823339007	41
2	5684	1769.197762223413	42
2	5685	1769.838928282253	41
2	5689	1770.21271059879	42
2	5690	1771.409752684265	41
2	5694	1771.77674505696	42
2	5695	1773.265005781494	41
2	5699	1773.786411507892	42
2	5700	1775.152772941805	41
2	5703	1776.992868024475	40
2	5707	1778.072260769741	41
2	5709	1778.216279467774	42
2	5710	1778.629563995815	41
2	5714	1779.365377487754	42
2	5716	1780.334733402998	43
2	5717	1780.616949582278	42
2	5721	1781.726196470427	43
2	5723	1782.201647153493	44
2	5724	1782.221005261681	43
2	5728	1783.25175383707	44
2	5729	1783.495476143426	43
2	5733	1783.837774919183	44
2	5734	1785.16093895956	43
2	5738	1785.750405447999	44
2	5739	1786.94710471741	43
2	5743	1787.412069354118	44
2	5745	1788.312027775875	45
2	5747	1788.469123677424	46
2	5748	1788.477302303715	45
2	5751	1790.298683592854	44
2	5755	1790.676147603853	45
2	5756	1792.268870612038	44
2	5760	1792.330761815155	45
2	5761	1793.906818085899	44
2	5764	1795.816368600157	43
2	5768	1796.193228457659	44
2	5769	1797.066412527104	43
2	5773	1798.666636455311	44
2	5774	1799.033728752834	43
2	5777	1800.831374263008	42
2	5780	1802.154776025181	41
2	5784	1802.818375841544	42
2	5786	1803.831568334422	43
2	5787	1804.067649731589	42
2	5791	1804.433267087415	43
2	5793	1804.975373284626	44
2	5795	1805.109185980619	45
2	5796	1805.270492226621	44
2	5800	1805.314221422214	45
2	5801	1807.10228541269	44
2	5805	1807.642503714395	45
2	5807	1807.738049632234	46
2	5808	1808.35444193407	45
2	5812	1809.339344581833	46
2	5813	1809.776095782398	45
2	5816	1811.720012164852	44
2	5820	1812.720160132471	45
2	5821	1813.654166734768	44
2	5825	1815.112517906395	45
2	5826	1815.112857520012	44
2	5830	1816.240849515802	45
2	5831	1816.626816619551	44
2	5835	1816.699977622039	45
2	5837	1816.915287062191	46
2	5838	1818.26852906364	45
2	5842	1818.368256112925	46
2	5843	1819.998601968577	45
2	5847	1820.499243043708	46
2	5848	1821.913255480295	45
2	5852	1822.178345177166	46
2	5853	1823.597037520437	45
2	5857	1823.648519869657	46
2	5860	1825.177504259525	45
2	5864	1826.115102924185	46
2	5865	1826.861834779	45
2	5869	1827.481540795643	46
2	5870	1828.350645340225	45
2	5873	1829.616939441292	44
2	5877	1830.214011890227	45
2	5878	1830.998278061664	44
2	5881	1832.266916087447	43
2	5885	1833.181026790086	44
2	5887	1833.571429341416	45
2	5888	1834.101393183871	44
2	5891	1835.417525088592	43
2	5895	1836.092410128557	44
2	5896	1836.726682100436	43
2	5900	1837.492976883536	44
2	5901	1838.558560259445	43
2	5904	1840.253657486095	42
2	5907	1841.530661742567	41
2	5911	1841.566640411977	42
2	5914	1843.143819503478	41
2	5918	1843.568276250828	42
2	5920	1844.583031580451	43
2	5921	1844.793527546703	42
2	5925	1845.530722783494	43
2	5926	1846.141555829338	42
2	5929	1847.766533306792	41
2	5932	1849.275725094035	40
2	5936	1849.681946859156	41
2	5938	1849.794207204859	42
2	5940	1850.515990128472	43
2	5941	1850.636037024848	42
2	5944	1851.972790905267	41
2	5948	1853.265866317759	42
2	5949	1853.501206018582	41
2	5953	1853.820071584578	42
2	5954	1855.198575978346	41
2	5957	1857.089507929601	40
2	5961	1858.180012560537	41
2	5962	1858.925483718321	40
2	5966	1859.460985380441	41
2	5969	1860.220224252709	40
2	5973	1860.665962981698	41
2	5974	1862.029509063803	40
2	5978	1862.676729681691	41
2	5980	1862.764494893832	42
2	5981	1863.266101652563	41
2	5985	1864.029660490873	42
2	5986	1864.559154021547	41
2	5990	1864.957014689082	42
2	5992	1865.243195170211	43
2	5993	1866.428004110225	42
2	5999	1868.003641470884	43
2	6000	1868.271409337402	42
2	6004	1868.895234694361	43
2	6005	1869.861582514823	42
2	6009	1870.580762760985	43
2	6010	1871.579356107481	42
2	6014	1872.068258412578	43
2	6015	1873.521669381105	42
2	6019	1873.893227893989	43
2	6021	1874.610177048416	44
2	6022	1874.839854750403	43
2	6026	1875.020995083175	44
2	6027	1876.500637653091	43
2	6031	1877.621536409459	44
2	6032	1878.42517551183	43
2	6036	1879.181811477093	44
2	6038	1879.54239787744	45
2	6039	1879.711833460995	44
2	6042	1881.274827085243	43
2	6046	1881.854525591652	44
2	6047	1882.767952518904	43
2	6051	1884.217748586863	44
2	6052	1884.489915814245	43
2	6056	1884.510609112064	44
2	6057	1886.200451440358	43
2	6060	1887.493637425633	42
2	6064	1888.170461714527	43
2	6066	1888.943677991728	44
2	6067	1889.427645455109	43
2	6071	1889.853264158078	44
2	6072	1890.910447365785	43
2	6076	1892.286844388746	44
2	6077	1892.565400671581	43
2	6080	1893.864544856543	42
2	6084	1894.361077781477	43
2	6085	1895.599790925155	42
2	6088	1897.161948859873	41
2	6092	1897.780516140202	42
2	6093	1899.145693739499	41
2	6097	1899.208970123734	42
2	6099	1899.305555273204	43
2	6100	1900.637036891836	42
2	6104	1902.348346865695	43
2	6105	1902.467391976151	42
2	6109	1902.72832635635	43
2	6110	1904.24982538614	42
2	6114	1905.54577935117	43
2	6115	1905.91769710667	42
2	6119	1907.3342378822	43
2	6121	1907.637583936936	44
2	6122	1907.769438528824	43
2	6125	1909.125719165425	42
2	6128	1910.348485688861	41
2	6132	1910.401522001217	42
2	6133	1911.689657385271	41
2	6137	1912.05337257536	42
2	6140	1913.577796237167	41
2	6144	1913.806732931593	42
2	6145	1914.829976868067	41
2	6148	1916.766034169678	40
2	6151	1918.266941845972	39
2	6155	1919.17548096627	40
2	6156	1919.637923181612	39
2	6160	1920.685710880149	40
2	6161	1921.075294767875	39
2	6164	1922.826219038475	38
2	6167	1924.704228523183	37
2	6171	1925.615022896288	38
2	6172	1925.963319753851	37
2	6176	1926.544866430938	38
2	6178	1926.705885902498	39
2	6179	1927.599887359138	38
2	6182	1929.389877093207	37
2	6186	1929.662933418135	38
2	6188	1929.770754965723	39
2	6190	1930.59580251661	40
2	6191	1931.30963254552	39
2	6195	1932.079098476837	40
2	6197	1932.120996235045	41
2	6198	1932.650039203462	40
2	6201	1934.576801440676	39
2	6205	1934.629964258897	40
2	6208	1935.903299568218	39
2	6212	1936.568534430062	40
2	6214	1937.590386246763	41
2	6215	1937.644351888072	40
2	6219	1938.424912863705	41
2	6221	1938.936481809143	42
2	6222	1939.245312712338	41
2	6225	1941.176888108064	40
2	6228	1942.854151148346	39
2	6231	1944.718917959553	38
2	6235	1945.711457699914	39
2	6236	1946.134960058515	38
2	6240	1946.137938130455	39
2	6241	1948.074103712102	38
2	6245	1949.638323827531	39
2	6247	1949.655714421985	40
2	6248	1949.893936078062	39
2	6252	1950.028853681678	40
2	6256	1950.733383889758	41
2	6258	1951.189086832377	42
2	6260	1951.369375905047	43
2	6261	1951.462220141662	42
2	6264	1953.096706274708	41
2	6268	1953.713888793362	42
2	6269	1954.847525850681	41
2	6273	1955.215241918319	42
2	6276	1956.29031177554	41
2	6280	1956.360051942188	42
2	6282	1956.657846724331	43
2	6283	1958.220945994181	42
2	6287	1958.555861901182	43
2	6288	1960.025050040146	42
2	6292	1960.976966954976	43
2	6293	1961.411704092843	42
2	6296	1963.095357042735	41
2	6300	1964.052142413636	42
2	6301	1965.007032591102	41
2	6304	1966.685979365369	40
2	6308	1966.891745509969	41
2	6309	1968.055566705575	40
2	6313	1969.062768307178	41
2	6314	1969.622578652387	40
2	6318	1970.631755627589	41
2	6319	1971.057831267638	40
2	6323	1971.708505481391	41
2	6324	1972.770692137627	40
2	6328	1973.689623291743	41
2	6329	1973.991793911157	40
2	6332	1975.907043201847	39
2	6336	1976.276764019109	40
2	6337	1977.159482813066	39
2	6341	1977.366564727554	40
2	6343	1977.863163250836	41
2	6344	1978.668950675612	40
2	6348	1980.030925822813	41
2	6349	1980.136058475634	40
2	6353	1980.452801405938	41
2	6354	1981.479252635872	40
2	6358	1981.570007081125	41
2	6359	1983.291540712861	40
2	6363	1984.168250249645	41
2	6364	1985.015488589739	40
2	6368	1985.304761905693	41
2	6369	1986.831235965339	40
2	6372	1988.057614827713	39
2	6376	1988.250339374108	40
2	6377	1989.442197027801	39
2	6381	1989.473059594707	40
2	6382	1990.94236844722	39
2	6385	1992.502202980964	38
2	6389	1992.570974701856	39
2	6390	1994.479570708795	38
2	6393	1996.138112557492	37
2	6397	1997.477010584146	38
2	6398	1997.716985851711	37
2	6402	1998.47608764793	38
2	6404	1998.577033534386	39
2	6405	1998.923830909653	38
2	6409	1999.110956542348	39
2	6411	2000.078929980699	40
2	6412	2000.857595643586	39
2	6416	2002.03628766769	40
2	6417	2002.806124113499	39
2	6420	2004.125220729596	38
2	6424	2005.657583015778	39
2	6426	2005.675773713772	40
2	6427	2005.69347452484	39
2	6431	2006.698193794431	40
2	6433	2006.722266412693	41
2	6434	2007.602274758182	40
2	6437	2009.120514770224	39
2	6440	2011.020628182217	38
2	6443	2012.530814090929	37
2	6447	2013.296897957165	38
2	6448	2014.337853707558	37
2	6452	2016.116561516456	38
2	6453	2016.277122063561	37
2	6456	2018.236766109614	36
2	6460	2018.364692988391	37
2	6462	2019.199603325346	38
2	6463	2019.75274580512	37
2	6467	2019.843524684942	38
2	6469	2019.912419932276	39
2	6471	2021.137585083832	40
2	6472	2021.226665763369	39
2	6476	2021.292673099079	40
2	6477	2022.755454036033	39
2	6481	2023.352635888845	40
2	6482	2024.408809346145	39
2	6486	2025.334908075497	40
2	6487	2025.73608949445	39
2	6491	2026.00119438586	40
2	6492	2027.652403102813	39
2	6496	2027.852826361969	40
2	6497	2029.49215008281	39
2	6500	2031.289604537374	38
2	6504	2031.901185205155	39
2	6505	2032.705294636077	38
2	6509	2033.310856379982	39
2	6510	2034.475461558065	38
2	6514	2034.733611304496	39
2	6516	2035.402516093855	40
2	6517	2036.151963131687	39
2	6521	2037.010550608599	40
2	6522	2037.756101329064	39
2	6525	2038.964751715956	38
2	6529	2040.058796939656	39
2	6530	2040.488898425175	38
2	6534	2040.825185839659	39
2	6535	2042.131220905295	38
2	6539	2042.525733639099	39
2	6541	2042.812594790263	40
2	6543	2043.025809994098	41
2	6544	2043.917773447929	40
2	6548	2044.188329593617	41
2	6550	2044.890846280872	42
2	6551	2045.757272461427	41
2	6555	2045.93450576199	42
2	6556	2047.367387142775	41
2	6560	2047.695771266355	42
2	6562	2047.840343002367	43
2	6563	2048.750973421892	42
2	6567	2049.106858950614	43
2	6568	2050.347477732597	42
2	6571	2052.326823241821	41
2	6575	2053.014073714814	42
2	6577	2053.477549044872	43
2	6578	2053.804158479533	42
2	6582	2054.958784959443	43
2	6583	2055.141225521265	42
2	6586	2056.442788642085	41
2	6590	2056.834173413012	42
2	6592	2057.189249485413	43
2	6593	2057.705280456505	42
2	6597	2057.71935814895	43
2	6598	2059.564275197125	42
2	6601	2061.375229401699	41
2	6605	2061.566882287272	42
2	6606	2063.001317801884	41
2	6610	2063.836238234349	42
2	6611	2064.625177517346	41
2	6615	2065.277118636189	42
2	6616	2066.213494527339	41
2	6620	2066.224868371346	42
2	6622	2066.742495383092	43
2	6624	2067.113048763598	44
2	6625	2068.19277495779	43
2	6631	2069.723541483251	44
2	6632	2070.055611905455	43
2	6635	2071.28528054431	42
2	6639	2071.53850918473	43
2	6640	2072.825930985621	42
2	6643	2074.664318506605	41
2	6647	2074.881900470182	42
2	6648	2076.107109414599	41
2	6651	2077.828087287023	40
2	6655	2078.789912441952	41
2	6657	2079.163080317179	42
2	6658	2079.386715400777	41
2	6661	2081.28411416877	40
2	6665	2082.349672279571	41
2	6666	2082.957877658679	40
2	6670	2083.514690022899	41
2	6672	2083.667892226015	42
2	6673	2084.843063644132	41
2	6676	2086.245056953466	40
2	6680	2087.511812278011	41
2	6681	2087.535263677685	40
2	6684	2088.932764440401	39
2	6687	2090.635782988554	38
2	6691	2092.39459090587	39
2	6692	2092.520705846509	38
2	6696	2092.833795800647	39
2	6697	2094.000733063368	38
2	6701	2095.313527694764	39
2	6703	2095.331202867646	40
2	6704	2095.851634928582	39
2	6708	2095.966350414386	40
2	6710	2096.39879666808	41
2	6711	2097.746318437157	40
2	6715	2098.283513178971	41
2	6716	2099.347092719933	40
2	6720	2100.04514931647	41
2	6721	2101.176294628156	40
2	6724	2102.614664217641	39
2	6727	2104.402813439814	38
2	6731	2104.712624615954	39
2	6733	2104.727793884474	40
2	6735	2105.452292333593	41
2	6736	2106.145426551437	40
2	6740	2106.181435733312	41
2	6742	2106.980587678705	42
2	6743	2108.142144363558	41
2	6747	2108.236378188855	42
2	6749	2109.284573241935	43
2	6750	2110.088679872451	42
2	6754	2110.805182733615	43
2	6755	2111.536297992987	42
2	6758	2113.157479463888	41
2	6762	2113.208483778552	42
2	6764	2113.818264183682	43
2	6765	2114.579081829449	42
2	6768	2116.177032300455	41
2	6772	2117.329291431718	42
2	6773	2117.975001995636	41
2	6777	2118.846273220783	42
2	6778	2119.621973650714	41
2	6782	2120.410552444465	42
2	6783	2120.948710324427	41
2	6787	2122.485059941089	42
2	6788	2122.575870808026	41
2	6791	2123.883251414446	40
2	6795	2124.565188771888	41
2	6796	2125.412967769986	40
2	6800	2125.431631832401	41
2	6802	2126.011655288749	42
2	6803	2127.211089714428	41
2	6807	2128.070663108301	42
2	6808	2129.000483601538	41
2	6811	2130.675334211623	40
2	6814	2132.372374828344	39
2	6818	2132.604036214913	40
2	6819	2133.744568360409	39
2	6823	2134.159153330184	40
2	6825	2134.827926174142	41
2	6826	2135.196902451476	40
2	6830	2136.362789618694	41
2	6831	2136.695819846725	40
2	6834	2138.526669927684	39
2	6840	2138.916116699802	40
2	6842	2138.951465969286	41
2	6843	2140.388891937395	40
2	6847	2140.419582622353	41
2	6848	2141.99002717044	40
2	6854	2142.204406489913	41
2	6856	2142.481200396147	42
2	6858	2142.912028261412	43
2	6859	2143.734257964602	42
2	6863	2144.676922381901	43
2	6864	2144.945281208305	42
2	6867	2146.834463310985	41
2	6871	2147.10005166746	42
2	6872	2148.629301022364	41
2	6876	2149.165057450261	42
2	6878	2150.231711987195	43
2	6879	2150.389858125335	42
2	6882	2151.603925240783	41
2	6886	2152.15529834109	42
2	6887	2153.171983605063	41
2	6891	2153.211614705617	42
2	6893	2154.036582710771	43
2	6895	2154.044307957663	44
2	6896	2154.696758642232	43
2	6900	2154.805548825627	44
2	6901	2156.443241358733	43
2	6904	2158.294541269539	42
2	6908	2158.878729466715	43
2	6909	2159.697166550158	42
2	6912	2161.180135096049	41
2	6917	2162.918151236696	40
2	6921	2162.958561725943	41
2	6923	2163.835409944374	42
2	6924	2164.473226444049	41
2	6928	2164.473301388917	42
2	6930	2164.756164250472	43
2	6931	2165.864757763406	42
2	6934	2167.613642336799	41
2	6938	2167.813117629548	42
2	6940	2168.210938083203	43
2	6941	2169.259753212331	42
2	6945	2170.848553900555	43
2	6946	2171.205242130717	42
2	6950	2171.748601735017	43
2	6951	2172.937771231679	42
2	6955	2173.471647877343	43
2	6956	2174.338607221467	42
2	6959	2175.751915497517	41
2	6962	2177.340238869188	40
2	6966	2177.863455709389	41
2	6967	2179.10297740083	40
2	6970	2180.924673285706	39
2	6976	2182.014205379826	40
2	6978	2182.09089751411	41
2	6979	2182.89833403807	40
2	6983	2183.12273911186	41
2	6984	2184.16478629168	40
2	6987	2186.068099870904	39
2	6991	2186.091496174715	40
2	6993	2186.929436996223	41
2	6994	2187.389118002354	40
2	6998	2187.465092747685	41
2	6999	2188.700534566304	40
2	7003	2188.867893501203	41
2	7005	2189.808543561706	42
2	7006	2190.244168800114	41
2	7009	2191.943517534619	40
2	7012	2193.533996755628	39
2	7016	2193.994235601831	40
2	7018	2195.234425039963	41
2	7019	2195.290764415076	40
2	7022	2197.069747267103	39
2	7026	2198.811623812413	40
2	7028	2198.926901868021	41
2	7029	2198.959334188326	40
2	7033	2199.366910336129	41
2	7034	2200.824505427106	40
2	7037	2202.070348308234	39
2	7043	2202.930333696767	40
2	7044	2203.646376277691	39
2	7047	2205.142101163788	38
2	7051	2205.776757458078	39
2	7052	2206.605492170526	38
2	7056	2206.738732346408	39
2	7057	2208.037681052646	38
2	7061	2208.12583780987	39
2	7062	2209.238613976909	38
2	7065	2211.04179592002	37
2	7069	2211.250194556886	38
2	7070	2212.644179620406	37
2	7074	2213.295027775709	38
2	7075	2214.60112380944	37
2	7078	2216.593524402751	36
2	7082	2216.857788654586	37
2	7083	2218.036049383505	36
2	7087	2218.786072208248	37
2	7089	2219.006152695553	38
2	7091	2219.115167433323	39
2	7092	2219.612696971371	38
2	7095	2220.914172284304	37
2	7098	2222.667847652546	36
2	7102	2223.235616936641	37
2	7103	2224.08806754928	36
2	7107	2225.041006662051	37
2	7108	2225.334242585301	36
2	7112	2226.063227544195	37
2	7113	2226.964554337412	36
2	7117	2228.577725894394	37
2	7118	2228.760951050185	36
2	7121	2230.255110708624	35
2	7125	2230.455303061221	36
2	7126	2231.632641404308	35
2	7129	2233.078532464057	34
2	7133	2234.407959367485	35
2	7134	2235.029399449751	34
2	7137	2236.546298633889	33
2	7141	2237.94780446482	34
2	7142	2238.391071784497	33
2	7146	2238.731123517129	34
2	7148	2239.890969340519	35
2	7149	2240.275879557618	34
2	7153	2240.663453308057	35
2	7154	2241.515158464947	34
2	7158	2242.222603219329	35
2	7160	2242.788198501202	36
2	7161	2243.086807809212	35
2	7165	2243.618751230354	36
2	7167	2243.868875433713	37
2	7170	2244.638771138713	36
2	7173	2246.009122931026	35
2	7177	2246.589696632786	36
2	7178	2247.226587262563	35
2	7181	2248.612550947256	34
2	7185	2248.643965565804	35
2	7186	2250.000993953272	34
2	7190	2250.03252381314	35
2	7192	2251.212906641864	36
2	7193	2251.40619015526	35
2	7196	2252.666472372412	34
2	7199	2254.127828005142	33
2	7203	2254.351285056887	34
2	7205	2254.430673292807	35
2	7207	2254.640041953576	36
2	7209	2255.204934156849	37
2	7210	2255.727441993169	36
2	7214	2256.439819553918	37
2	7215	2257.310106721334	36
2	7219	2257.612071439774	37
2	7220	2258.575120994635	36
2	7224	2258.680518715253	37
2	7225	2259.964276510663	36
2	7229	2260.612351056887	37
2	7230	2261.767097537033	36
2	7234	2262.596669534081	37
2	7235	2263.134112931788	36
2	7239	2263.958730203135	37
2	7240	2264.997805138491	36
2	7244	2265.735942462041	37
2	7245	2266.222861190513	36
2	7249	2266.361837781833	37
2	7250	2268.136706630327	36
2	7254	2268.45633870548	37
2	7255	2270.11034455616	36
2	7259	2270.361636628333	37
2	7263	2270.622012003286	38
2	7264	2272.060550201498	37
2	7268	2273.23834858461	38
2	7269	2273.790661665797	37
2	7273	2274.903789456764	38
2	7274	2275.107204149849	37
2	7278	2276.535872579009	38
2	7279	2277.027985375001	37
2	7283	2277.116525549855	38
2	7284	2278.474529326706	37
2	7288	2278.896209168744	38
2	7289	2280.019172998144	37
2	7293	2280.236700624408	38
2	7294	2281.925650477036	37
2	7297	2283.226783861033	36
2	7301	2284.839396276287	37
2	7302	2284.991995317675	36
2	7305	2286.925919001549	35
2	7310	2288.349299612455	34
2	7314	2288.825024910806	35
2	7315	2289.784045961499	34
2	7319	2289.926408203595	35
2	7322	2291.069045526348	34
2	7326	2292.192245883951	35
2	7328	2292.502971797288	36
2	7329	2292.897061518393	35
2	7333	2294.039947327463	36
2	7334	2294.526219239644	35
2	7338	2295.758137047465	36
2	7339	2296.23791903071	35
2	7342	2297.604307234659	34
2	7346	2298.520896811856	35
2	7347	2299.113259025662	34
2	7351	2300.203031122013	35
2	7352	2300.910354521497	34
2	7356	2301.76318969441	35
2	7358	2301.981954908981	36
2	7359	2302.333220379612	35
2	7363	2303.816564950642	36
2	7364	2304.234817129186	35
2	7368	2305.079087731291	36
2	7369	2305.592931542917	35
2	7373	2305.987436182661	36
2	7375	2306.807518743353	37
2	7376	2307.050887209921	36
2	7380	2308.141002602132	37
2	7382	2308.631801449472	38
2	7383	2308.874866254068	37
2	7386	2310.122311725467	36
2	7390	2310.659156026659	37
2	7391	2311.780727509409	36
2	7395	2312.564216435937	37
[...]
5	84451	26294.630333138058	1696.7551997243
5	84475	26301.68682496863	444.72310720216
5	84480	26303.345988151976	446.36739096239
5	84495	26308.011393460803	2886.0431931887
5	84519	26314.004705759309	5153.6080611512
5	84534	26318.932181536763	440.96269338952
5	84579	26330.987154060959	442.07555387089
5	84688	26363.922019217892	436.9582697944
5	84693	26365.669455792925	3290.5690839718
5	84701	26369.281385720132	3667.2408384843
5	84726	26376.958693640104	2121.6911574386
5	84737	26382.578487740441	433.24976655375
5	84742	26384.483065547033	6235.4440221469
5	84770	26394.519973769768	2923.1663529421
5	84778	26397.530269105902	1710.9636139078
5	84793	26402.854683012685	1712.5418488271
5	84798	26404.402884004807	878.45183770304
5	84811	26409.717044778151	877.16673960055
5	84826	26417.799941760658	1300.3865461017
5	84866	26427.365410997702	440.71118550326
5	84876	26430.591336401722	1303.5364538892
5	84903	26438.957726879774	880.54403618141
5	84906	26440.360391392915	439.41594970353
5	84909	26441.65318965724	2144.7228381158
5	84934	26450.052962322143	1302.4368385795
5	84995	26471.114809854498	446.04018311813
5	85021	26478.062255751325	1715.7394188884
5	85050	26489.07929057235	1714.5688894383
5	85067	26493.597242592258	1302.0368194395
5	85074	26495.450576834736	445.17363183386
5	85080	26498.748093707283	1715.4906457162
5	85100	26505.146902437862	1304.8050617179
5	85165	26522.204819290881	1304.7774844736
5	85198	26532.030529617129	4442.4335012767
5	85206	26535.361451921968	880.62970664774
5	85233	26543.91558595056	438.00068775891
5	85243	26547.541275998376	2131.6647311738
5	85268	26555.458296522296	2907.6493896334
5	85348	26581.046310981531	4443.3410704976
5	85412	26599.907400074397	440.6563299917
5	85457	26613.809702317025	880.23583678887
5	85521	26632.516627959142	885.5186058151
5	85527	26635.750652738268	885.50805929457
5	85554	26642.910847328583	433.20809281172
5	85559	26644.851068869399	4051.0539363972
5	85572	26649.598383330347	7637.7187841178
5	85598	26658.889029364267	4812.8137429298
5	85621	26664.155635010988	887.11491925898
5	85637	26670.576542667091	432.69788621115
5	85644	26671.8162256127	2534.2682823265
5	85685	26686.037378234393	2125.8186378645
5	85707	26691.508345569461	2526.2169031214
5	85712	26693.05053100118	1710.1912708099
5	85718	26696.259650446824	881.33191072157
5	85728	26698.998116243236	3671.5665314692
5	85780	26715.641980204337	422.36554558757
5	85858	26739.709229082406	428.39976149009
5	85887	26747.418324194641	869.28173886735
5	85892	26749.202600367719	427.11063697081
5	85954	26767.966189633848	2939.1225258789
5	85989	26779.499371435473	2131.341837092
5	86002	26784.35688596459	428.46941908055
5	86027	26792.361812763082	868.90414264365
5	86049	26799.507086917178	2134.6621068366
5	86070	26808.371672824562	871.38505849212
5	86077	26810.341577750981	1309.1949310804
5	86121	26823.012499441185	2138.7004002948
5	86155	26832.957792101406	1305.2602893641
5	86202	26847.414498635918	4877.0937329674
5	86209	26849.233142269008	423.62220118723
5	86216	26850.995180825308	424.66044036667
5	86269	26868.283571128151	4499.6147039553
5	86331	26887.557548523113	2549.743268611
5	86363	26896.830212797202	1726.5016488833
5	86370	26898.195967582032	1722.4402789391
5	86375	26899.57180488275	4492.407111673
5	86420	26913.151122244054	412.06705059157
5	86451	26921.606264102997	410.21961671562
5	86464	26926.537064064645	1301.1553574715
5	86481	26931.14532632807	861.47412446873
5	86499	26937.221348774039	1297.3988591956
5	86504	26938.737572806307	1716.875593864
5	86536	26948.027794766964	3315.3023848132
5	86544	26951.460303474383	1707.8763696702
5	86617	26976.613228729348	2553.5734219868
5	86680	26991.648914171178	851.65905902489
5	86694	26995.259872453082	855.0525111537
5	86727	27006.3583126189	854.18313718395
5	86762	27017.516375366766	2942.7521731528
5	86772	27020.777925053966	2547.3787580677
5	86775	27022.184169598092	851.22878944282
5	86780	27024.049625713919	852.79478051927
5	86828	27043.018567208742	852.40514373386
5	86845	27047.37383007275	3324.5069861447
5	86909	27067.509851733018	3331.4463487525
5	86922	27071.715489500556	6988.4760903841
5	86971	27085.121473834086	1709.0453702982
5	87005	27094.971131674554	407.22267326848
5	87008	27096.930530518647	5582.4299771179
5	87013	27098.22403592037	838.77709650125
5	87022	27102.380925769154	1699.8685823337
5	87039	27106.840682258811	829.83961023723
5	87097	27125.311001487058	827.16094600443
5	87118	27130.625559025426	3327.6004825624
5	87121	27131.887389868852	404.81565957077
5	87146	27138.837548521888	832.15147729764
5	87156	27141.729225032014	832.53863409116
5	87164	27144.334794486297	2125.2600344784
5	87202	27153.877617056464	2527.2183478772
5	87212	27157.691215804388	831.99336003089
5	87225	27161.567140000109	1698.8323569363
5	87247	27168.377966647018	1280.6088010653
5	87250	27170.356467675958	4497.0179208049
5	87272	27176.458621677366	1278.4102222019
5	87301	27184.563473426533	2956.7426130784
5	87304	27186.311440191959	4126.1109303807
5	87342	27198.051093181019	2958.6831657746
5	87367	27206.134518385847	842.15929097931
5	87391	27212.496703323704	836.07778418598
5	87426	27224.193368213792	402.74657899539
5	87434	27227.659458468836	404.58975129058
5	87515	27251.748862332274	1708.6778058668
5	87525	27254.930384770763	3369.1270324192
5	87656	27297.478530001623	3377.3936856383
5	87690	27307.48700658491	410.52430906242
5	87693	27308.862471823377	2139.2947860784
5	87729	27322.289469851722	1710.8864281821
5	87780	27336.001767570136	4908.1306834611
5	87804	27341.784869404493	1714.7644469153
5	87812	27345.007864917053	2554.4452006868
5	87817	27346.605024266413	412.21579707511
5	87832	27352.064788648098	4530.9357289916
5	87835	27353.848100944593	1706.7871448632
5	87838	27355.775916473366	4528.9108911862
5	87851	27360.322537445448	412.71973072668
5	87862	27365.368209649049	3359.225448406
5	87893	27373.277282267421	2119.7441786802
5	87896	27375.1818461662	1260.3759644324
5	87933	27390.321054701863	407.97110347266
5	87997	27408.198408167793	418.15918796534
5	88056	27423.741159084794	1275.4446889569
5	88066	27426.911921777558	2971.9227311448
5	88117	27442.107090956513	2546.2949821679
5	88184	27463.884114818072	3374.7423098843
5	88213	27472.118022997848	1721.6533665985
5	88241	27480.971255126952	831.66920327563
5	88244	27482.958804699204	2555.6302566049
5	88247	27484.533619728296	5282.1203879958
5	88260	27489.278734428792	412.58138901075
5	88273	27494.458014720663	3371.4571629425
5	88276	27496.134025927059	832.09550770394
5	88279	27497.397892038881	1719.3300126066
5	88329	27512.782002138889	4127.9294808458
5	88334	27514.374077284879	417.34586065475
5	88346	27516.875538758172	2529.2269190968
5	88351	27518.56970919816	4107.0983206857
5	88382	27529.815735923109	2109.8678634737
5	88385	27531.554085185548	2109.7425092663
5	88409	27538.597388874909	2110.1856081659
5	88431	27544.826676282643	3355.7391668547
5	88451	27550.864645696974	1247.7292427873
5	88464	27555.782472215576	416.76552456114
5	88489	27563.667047666554	3361.2517511464
5	88515	27572.654314427804	2118.1371719046
5	88549	27585.296633588878	824.90914791558
5	88577	27591.448323447612	829.56907018519
5	88665	27619.044252536801	825.73991880291
5	88700	27626.654171064478	1701.7091257087
5	88735	27638.31547184622	3379.6630102101
5	88793	27656.275747891311	1697.1881122966
5	88832	27668.121228121574	4187.714520605
5	88845	27672.95460540017	424.41866606368
5	88897	27689.454663795027	3399.4734981474
5	88914	27693.872419945503	6104.0105180401
5	88938	27700.711034708636	2137.8229521667
5	88957	27705.841727564277	1258.2576626981
5	88960	27707.272426966557	2563.2828960328
5	88972	27710.453807698356	1696.9328987067
5	89012	27723.507483913916	839.31185347754
5	89022	27726.197931450772	4955.151048215
5	89040	27732.857179538886	1708.7280526395
5	89043	27734.075738298501	424.2425415097
5	89175	27774.214215955493	1701.9179871934
5	89194	27778.883637727221	418.59244408384
5	89206	27782.15372908542	3378.7536780159
5	89218	27785.673927249183	1247.9960691111
5	89226	27789.554571889137	9255.4659930582
5	89231	27791.450275282544	2131.2935209975
5	89234	27793.177458063868	422.07317040778
5	89237	27794.820109244977	2542.94013518
5	89240	27796.750102891383	1241.7759113035
5	89246	27799.952586736327	418.62212292065
5	89278	27810.245717001504	830.45240013121
5	89288	27814.017198258063	1252.891471163
5	89306	27820.206053196436	2556.4692176816
5	89311	27821.592455478741	836.77043701525
5	89337	27830.700009195303	419.17397898218
5	89369	27839.935934074765	422.0057361155
5	89391	27845.691683330929	424.9862427461
5	89434	27859.688264466433	1705.7984519229
5	89460	27869.392892936786	428.56555559954
5	89477	27874.082103653048	2563.8265138708
5	89502	27882.553101098147	3396.2394139136
5	89545	27897.360057501477	2982.0894362923
5	89556	27902.42491684964	432.49368274592
5	89585	27910.550532514212	1705.7084735267
5	89617	27920.724149430898	420.14719135388
5	89631	27924.280250187201	1253.2038303567
5	89634	27926.056362356042	421.01299522518
5	89644	27929.20325009281	420.52494361091
5	89676	27939.410322045145	2555.7617216636
5	89698	27946.284445354139	3366.8762349136
5	89701	27947.615791210142	1241.7422257157
5	89706	27948.883434178476	836.05739487743
5	89717	27952.964165396039	3777.7014218451
5	89720	27954.761680921708	419.5978264973
5	89818	27980.023851991055	841.36959010653
5	89828	27983.028487531637	840.82177872912
5	89857	27991.427772118692	1675.8133525513
5	89879	27998.120940596406	418.78715778635
5	89882	27999.490335331467	845.81756718702
5	89897	28004.286847768707	2122.5157619109
5	89900	28006.211432046985	420.16904244945
5	89903	28007.769704569487	419.81456663881
5	89939	28020.291340845247	844.50072262014
5	89955	28023.516087288392	846.17656983805
5	89963	28026.399550474604	2125.2739575501
5	90110	28070.290095769596	5364.3094654115
5	90150	28080.731630494428	2123.787239652
5	90168	28087.77001178654	4218.8856020045
5	90212	28100.259031997604	852.05681882365
5	90232	28107.406349213404	4996.3727388213
5	90265	28118.31854203174	1267.552035752
5	90280	28122.723170048539	859.78242819209
5	90303	28130.601805253681	6540.6242866239
5	90313	28134.103197867405	6541.7054794512
5	90321	28138.080465298314	1273.1112327863
5	90331	28141.097904513944	2578.0748037932
5	90334	28142.745316697452	434.72409462047
5	90362	28151.658201696334	432.1621206544
5	90437	28173.452587510443	2572.1575413173
5	90454	28178.889983926511	3409.2963672198
5	90475	28187.543987242303	430.33977227204
5	90504	28195.70693114212	435.7277067034
5	90531	28204.457523601113	2144.2910894288
5	90539	28207.1397920586	1281.5634251758
5	90630	28238.635777988641	5738.0258363716
5	90663	28247.120497592895	1266.4443975478
5	90690	28255.695756306296	6898.9440785003
5	90712	28261.872580548917	852.3847727718
5	90731	28269.660547617247	432.55535508943
5	90747	28272.129087124561	854.3645168674
5	90809	28291.472079181467	3834.2975661232
5	90842	28301.920582804625	1700.6885593571
5	90884	28314.834228892792	1692.4680907806
5	90887	28316.120535836536	856.74989766407
5	90936	28331.227628320809	1276.565700263
5	90976	28343.237574554962	424.33553754729
5	91037	28361.199770558049	2988.0372841804
5	91045	28364.327284023148	5728.5375204026
5	91052	28366.254312486743	427.39348849634
5	91061	28368.029890791496	428.19660135128
5	91064	28369.446254296398	4594.9470337819
5	91067	28371.110882028362	4585.1280664071
5	91072	28372.60106309986	428.54384542378
5	91085	28377.625930030255	848.70945285422
5	91098	28382.748489677331	424.1033161556
5	91103	28383.999630820549	424.90707593668
5	91116	28389.345300299844	854.08136876556
5	91126	28392.48282304479	2969.7816516107
5	91165	28403.99211744888	2966.5563474485
5	91216	28418.399981826715	3805.9135226483
5	91219	28420.140206628837	432.79626107469
5	91222	28421.396794032291	434.01853655474
5	91256	28433.697245309487	1278.3082773007
5	91272	28436.741812175125	426.15486192827
5	91326	28452.177809186265	429.5201055651
5	91342	28458.155676722325	1683.6964280456
5	91380	28467.228553275935	427.18402467731
5	91385	28469.00171230527	1282.4552243502
5	91433	28483.534359306829	4248.8316417363
5	91447	28486.974428371513	3418.4140479162
5	91450	28488.35979109014	1284.4851158554
5	91495	28501.352335427131	3824.1246199926
5	91498	28503.219130484189	866.66334737391
5	91519	28511.412810813066	1291.8243417982
5	91529	28514.503245816928	4650.7370370441
5	91537	28517.732034704638	1287.945526964
5	91563	28524.021147497919	1696.2328798027
5	91627	28543.364047049535	2572.6889706406
5	91707	28567.859719074694	869.42821598449
5	91722	28572.927975090397	873.07396868575
5	91747	28580.234190542428	2567.8407393383
5	91792	28595.072114465191	4678.6326757637
5	91797	28596.425039000801	2580.30572999
5	91808	28601.177066140799	2581.7901342677
5	91818	28604.159305818183	3849.1279637968
5	91824	28607.677170541501	2134.6397892317
5	91873	28622.305927711158	1297.7014831202
5	91885	28625.237090169072	2133.6636680293
5	91927	28638.291195838704	1721.675809188
5	91945	28645.263708810873	1725.8293223758
5	91966	28650.427617601484	439.65129041155
5	91989	28658.465659710757	886.12918448285
5	92009	28664.469085937543	5075.9441775681
5	92012	28665.715268161697	886.19558235418
5	92020	28668.880197253813	6195.2897193139
5	92035	28673.117278672	889.3083464664
5	92041	28676.967318732468	2131.5642282966
5	92080	28688.913181437355	1713.0547079519
5	92097	28694.211030299392	1710.3650379931
5	92105	28697.70447885244	441.82658649474
5	92116	28702.461463230279	873.60433814674
5	92128	28705.959949680407	1295.9115191379
5	92186	28722.439083752769	1302.1604250447
5	92192	28725.974610517348	2143.1811369976
5	92222	28735.460329994734	1729.5900163328
5	92264	28748.794503184024	446.42655897896
5	92330	28768.170041901793	6580.5675930586
5	92354	28774.070415164892	6578.9794984841
5	92367	28779.083575030033	3027.7825629533
5	92392	28787.187508426782	445.09051003374
5	92407	28792.259983961646	872.51485126892
5	92412	28793.757491223317	871.73433967193
5	92494	28819.158604702529	442.66762969179
5	92515	28824.079182674166	1708.2384467923
5	92587	28845.416243050607	2115.8956372287
5	92632	28858.599288496922	2549.246161346
5	92642	28861.494611652184	1713.0814635313
5	92656	28864.696974059183	431.29993670686
5	92659	28865.988113719586	3415.8163423162
5	92678	28873.881234027993	438.10117645154
5	92681	28875.304407748941	433.97553879993
5	92708	28882.855856732082	1718.7946754387
5	92736	28890.768267422344	2563.1929741342
5	92748	28894.035573861922	872.23249001576
5	92796	28910.129528549674	441.67056935198
5	92818	28917.250915863353	870.09144811743
5	92897	28937.38635837956	879.64643434996
5	92951	28953.373282032261	874.19046087233
5	92968	28958.556133864248	439.8514763608
5	93046	28982.880883309603	2143.0188453595
5	93053	28984.763001122311	443.94140861935
5	93058	28986.486295503736	882.29061468682
5	93078	28993.216968291611	1313.7004390846
5	93176	29023.080413316734	1324.4829575384
5	93218	29038.397691645272	2164.0562600351
5	93233	29042.710872026518	2168.1867093318
5	93250	29047.44811631421	893.52911436098
5	93293	29059.754901562429	1321.1494144101
5	93298	29061.379228369876	3477.5321212458
5	93301	29062.623878605462	2163.4902103435
5	93307	29065.713796174883	2161.7606319956
5	93319	29069.081020906552	891.79646316147
5	93348	29080.0754599355	3467.5431379703
5	93356	29083.276956373064	447.94325512206
5	93409	29097.776245197265	3038.8595734277
5	93412	29099.463147485054	451.11265166178
5	93606	29156.636884995533	3022.6155173912
5	93644	29170.40133772528	892.53785036933
5	93703	29187.369229022398	1750.5367565075
5	93732	29195.357086839698	2174.941090645
5	93792	29215.624247533999	896.71396063206
5	93809	29220.656134153515	451.80288658958
5	93839	29229.572448725053	4738.5770805463
5	93846	29231.342699159854	2593.1365725791
5	93872	29237.280733291232	3882.3019609547
5	93926	29252.187348327026	899.60706452454
5	93934	29255.162378946677	1327.6458176465
5	93949	29260.33374153933	7775.7442472798
5	93977	29269.669065060081	449.37773603853
5	94003	29279.224663545178	453.0797858893
5	94047	29291.736071370342	894.95728204284
5	94056	29293.540566166477	3001.6941369767
5	94059	29295.411838274995	2576.4473352224
5	94062	29296.662485216918	3000.0573395929
5	94072	29299.989801397907	2172.9390132845
5	94075	29301.452335159095	2578.6102159362
5	94130	29319.481252563358	902.89009227463
5	94158	29328.375408454971	2171.4841423316
5	94176	29334.1693418322	1322.4556051487
5	94201	29342.78204408771	451.43950400936
5	94256	29357.569339912745	4716.5056315713
5	94259	29359.413666865776	1325.0016210205
5	94283	29366.353913091296	453.7290421796
5	94335	29381.493070299537	1329.1650614457
5	94354	29386.0039309088	902.01812531431
5	94369	29390.503236114406	905.0719955713
5	94396	29398.469799708002	2190.9442933773
5	94418	29405.309091768957	6322.0487966743
5	94434	29412.061468642748	461.09415499119
5	94481	29425.799989473804	456.92968166943
5	94511	29435.545016146435	1346.3978699167
5	94532	29443.310654177128	3479.7074179952
5	94535	29444.730713271147	2202.8545024579
5	94545	29448.172821792385	2612.0132794769
5	94560	29452.710006588122	908.61958401565
5	94563	29454.011247309281	4341.6128920826
5	94574	29458.170902694559	907.52264845745
5	94593	29463.236657104997	463.71064332342
5	94603	29466.14765602628	911.41897952561
5	94620	29471.538146908938	462.03331713507
5	94623	29472.790626636132	2622.4902317803
5	94650	29481.505920806512	918.01708332729
5	94698	29496.465016121961	921.73838188332
5	94703	29498.010896455481	922.99546802636
5	94710	29499.817182443089	457.99580880159
5	94735	29508.229918304442	1799.5858146466
5	94753	29514.631767271815	9680.6466666146
5	94780	29519.463506729885	6367.510239835
5	94801	29528.428527599185	1359.2257982983
5	94856	29546.647472153775	909.96675995619
5	94963	29577.699403480427	466.73597205544
5	94973	29581.519159574607	2652.7279692811
5	95001	29591.687609511041	1809.9421663073
5	95004	29593.194680127487	2647.475390639
5	95007	29594.909605314382	2226.5675087596
5	95023	29600.864308217713	1797.1026295231
5	95026	29602.462234795639	3480.1183900927
5	95080	29617.533386838983	1797.2279993343
5	95125	29631.335559422698	4773.7580722655
5	95142	29636.774555279117	919.06962174592
5	95167	29643.807388306956	1372.5690532968
5	95184	29649.387652822945	2657.7273893514
5	95201	29655.125574873376	3949.6528615773
5	95280	29679.813734846922	925.74249265337
5	95346	29698.787098681914	478.24132586028
5	95349	29700.28148971832	2238.612377745
5	95382	29711.796204987715	2665.8092244162
5	95398	29718.945577179069	483.38222780399
5	95414	29721.678888457069	3077.5867451685
5	95474	29741.547089795383	1388.9410791538
5	95574	29770.184728215621	1813.8922215271
5	95579	29771.828634088473	1810.8404626737
5	95624	29787.51927569619	1810.8237105575
5	95627	29789.159748590538	1375.7154127591
5	95630	29790.903430804038	1814.047275629
5	95655	29798.928070198172	4357.6550156347
5	95667	29801.503418937684	2653.2539479988
5	95682	29806.170260514491	2227.1623767277
5	95704	29812.870306107388	1369.114106698
5	95707	29814.30291392243	932.20023170631
5	95719	29817.80186607203	2652.0959543364
5	95752	29829.766698210487	935.70514903398
5	95786	29842.315724198881	3070.1504043393
5	95797	29847.070980232756	2231.1428191756
5	95818	29851.842206473078	1809.1071074365
5	95905	29881.156020427482	3090.0922478133
5	95911	29883.82785212359	488.10374320682
5	95934	29891.276369541126	2682.0366797906
5	95937	29892.544900066579	490.7058173895
5	95953	29895.707077727827	6041.637534941
5	95961	29898.920925826753	2684.7896165894
5	95991	29906.135089138137	3959.6920829909
5	96001	29909.85614158454	490.31483688968
5	96004	29911.312327941122	1834.0330976526
5	96010	29914.073111201438	1395.7168985215
5	96057	29927.700832021411	2268.4683643036
5	96085	29937.266960081446	1394.9420759275
5	96088	29939.11441986243	943.53918237148
5	96113	29946.982064948592	1393.4853280876
5	96207	29975.904329260055	479.04433250505
5	96214	29977.651101978298	2282.1919607681
5	96222	29981.055071331549	479.55912881606
5	96252	29988.206681204762	479.95689663516
5	96260	29991.141126575123	478.55441054307
5	96272	29993.826895837288	2288.9442866509

