version 2
run Third_exit_2-19-20191017-13:44:15-2012
attr configname Third_exit_2
attr datetime 20191017-13:44:15
attr experiment Third_exit_2
attr inifile omnetpp.ini
attr iterationvars ""
attr iterationvarsf ""
attr measurement ""
attr network ResponseTimeNetwork
attr processid 2012
attr repetition 19
attr replication #19
attr resultdir results
attr runnumber 19
attr seedset 19
param **.Source.interArrivalTime exponential(6s)
param **.jobPriority bernoulli(0.8)
param **.PS.serviceTimeU1 "uniform(1.2s, 2.0s)"
param **.PS.serviceTimeU2 "uniform(2.4s, 2.8s)"
param **.SS1.serviceTime exponential(1.4s)
param **.SS2.serviceTime exponential(2s)
param **.PS.exitProbability bernoulli(0.2)

vector 0 ResponseTimeNetwork.SS1 queueLength:vector ETV
attr interpolationmode sample-hold
attr title "queue length, vector"
vector 1 ResponseTimeNetwork.SS2 queueLength:vector ETV
attr interpolationmode sample-hold
attr title "queue length, vector"
vector 2 ResponseTimeNetwork.QueueU1 queueLength:vector ETV
attr interpolationmode sample-hold
attr title "queue length, vector"
vector 3 ResponseTimeNetwork.QueueU2 queueLength:vector ETV
attr interpolationmode sample-hold
attr title "queue length, vector"
vector 4 ResponseTimeNetwork.sink lifeTimeU1:vector ETV
attr interpolationmode none
attr title "lifetime of arrived jobs U1, vector"
attr unit s
vector 5 ResponseTimeNetwork.sink lifeTime:vector ETV
attr interpolationmode none
attr title "lifetime of arrived jobs, vector"
attr unit s
vector 6 ResponseTimeNetwork.sink lifeTimeU2:vector ETV
attr interpolationmode none
attr title "lifetime of arrived jobs U2, vector"
attr unit s
0	0	0	0
0	3450	3308.419262563364	1
0	3451	3308.56772648319	0
0	4275	4056.982602447759	1
0	4276	4057.455827887304	0
0	4745	4601.623144869221	1
0	4746	4601.963096154911	0
0	5109	4953.814928518811	1
0	5118	4956.086832661505	0
0	5121	4956.895157569291	1
0	5125	4957.987283620328	0
0	5128	4958.169702638702	1
0	5130	4958.829105932086	0
0	5365	5111.532374093987	1
0	5366	5112.998923096051	0
0	5430	5161.664149009531	1
0	5431	5162.065921330387	0
0	6400	6037.131020400818	1
0	6401	6039.770838434096	0
0	6405	6041.088450883176	1
0	6406	6041.560402591647	0
0	6487	6111.845928341057	1
0	6489	6111.862713241697	0
0	6610	6194.893315378393	1
0	6611	6195.182949393133	0
0	8430	7972.290676940333	1
0	8431	7977.264369749707	0
0	8575	8100.05269551626	1
0	8576	8100.739642118539	0
0	8875	8378.455376734752	1
0	8876	8380.642246147259	0
0	10151	9597.267683705707	1
0	10156	9600.103834969443	0
0	11312	10640.359444811272	1
0	11314	10641.616181262455	0
0	11835	11159.540195457415	1
0	11836	11159.835106229005	0
0	12566	11842.298526583069	1
0	12568	11842.3417143275	0
0	12840	12089.399210886706	1
0	12844	12090.535359336503	0
0	15297	14616.817769424585	1
0	15299	14617.537931863229	0
0	15302	14618.763358794493	1
0	15304	14619.713343459275	0
0	15665	15013.045803347452	1
0	15666	15013.858850815555	0
0	16897	16247.450413943914	1
0	16901	16249.330166194983	0
0	19045	18250.295512519356	1
0	19049	18252.401291488585	0
0	19400	18578.8422025091	1
0	19401	18579.455964628073	0
0	20257	19404.969839455425	1
0	20259	19405.338010671536	0
0	20605	19732.089884642289	1
0	20611	19736.913839516703	0
0	24760	24079.564894309642	1
0	24761	24080.27767174228	0
0	25845	25041.167218156302	1
0	25846	25042.614459767123	0
0	27497	26592.319252473396	1
0	27501	26593.876236485918	0
0	27505	26595.235252293986	1
0	27506	26597.29982858398	0
0	27617	26709.828062485158	1
0	27619	26709.912338298946	0
0	28315	27355.6068088073	1
0	28316	27355.841727255887	0
0	29962	29171.536320260481	1
0	29964	29171.720593774274	0
1	0	0	0
1	6245	5947.390492582561	1
1	6246	5947.724521189584	0
1	9010	8489.078488782517	1
1	9019	8492.985628137773	0
1	12030	11343.348671951072	1
1	12031	11346.362135901263	0
2	0	0	0
2	35	55.056253874108	1
2	37	55.780627530949	2
2	38	56.510843034146	1
2	41	58.136991898959	0
2	45	59.336440067533	1
2	46	59.646597316546	0
2	50	59.935423172031	1
2	51	61.265083540475	0
2	55	61.278720052273	1
2	57	62.735578546762	2
2	58	62.912575056089	1
2	61	64.675596797524	0
2	100	138.833169299624	1
2	102	140.203730030959	2
2	103	140.374672298259	1
2	107	141.544867645542	2
2	108	141.635901546976	1
2	111	142.982225434421	0
2	115	144.592289746171	1
2	116	144.927677721283	0
2	195	202.094185549801	1
2	196	202.167473183993	0
2	250	281.645711092622	1
2	251	282.528445338882	0
2	270	298.571383817799	1
2	271	299.997243422712	0
2	310	352.268706709144	1
2	311	354.063971172416	0
2	355	386.172651395276	1
2	356	387.046004876364	0
2	365	393.046582772576	1
2	366	393.305570604608	0
2	400	421.477553238595	1
2	402	421.947704368768	2
2	403	422.100192218238	1
2	406	423.374371539952	0
2	430	444.65509595391	1
2	433	445.894132383636	0
2	437	446.531344732644	1
2	439	446.89884567706	2
2	441	447.331818014167	3
2	442	447.456888841747	2
2	445	448.714310975655	1
2	450	450.431055408998	0
2	465	457.449543241871	1
2	466	458.987461891098	0
2	480	464.010101420486	1
2	482	464.684610697901	2
2	483	465.023219453424	1
2	486	466.382589402675	0
2	505	473.888170222043	1
2	506	475.282372457926	0
2	515	479.166669696293	1
2	516	480.589817980426	0
2	520	480.705152535022	1
2	521	481.855963358963	0
2	525	482.227594473462	1
2	527	483.01596248332	2
2	528	483.662125595221	1
2	531	485.128859247015	0
2	550	501.829583638144	1
2	551	502.530138220596	0
2	560	506.267251772058	1
2	561	506.60129371347	0
2	565	507.85203761585	1
2	567	508.205037813317	2
2	568	508.418445936088	1
2	571	509.850605631304	0
2	610	560.850890723632	1
2	612	561.432092902034	2
2	613	561.820532147587	1
2	616	563.576118902863	0
2	640	575.418756861414	1
2	641	576.819215610193	0
2	650	580.642570242698	1
2	651	582.073779287774	0
2	685	599.534608349476	1
2	686	600.513511174156	0
2	732	638.646390960037	1
2	733	639.093123436332	0
2	770	669.086853343507	1
2	771	670.272145954297	0
2	775	670.333032973079	1
2	776	671.977771725842	0
2	780	672.078924735465	1
2	781	673.226845017971	0
2	840	738.38934236151	1
2	842	738.439263416309	2
2	843	738.70098464653	1
2	848	740.488727797532	0
2	852	741.745968620999	1
2	853	742.303630433382	0
2	935	821.028664471711	1
2	937	821.421407264427	2
2	938	822.241542502439	1
2	942	822.389770122175	2
2	945	823.763393649405	1
2	948	825.116307739487	0
2	955	827.84820400578	1
2	957	827.936554407668	2
2	958	828.254627776465	1
2	961	829.852338403037	0
2	965	830.72253551258	1
2	966	831.388010122946	0
2	975	835.813821365587	1
2	976	836.064428645389	0
2	1010	883.943682507867	1
2	1011	884.608029914357	0
2	1025	898.863297102498	1
2	1026	899.296927224488	0
2	1030	899.861143900715	1
2	1031	900.892890683764	0
2	1075	979.881026352132	1
2	1076	980.524182937924	0
2	1105	1016.441211336179	1
2	1106	1017.221026592299	0
2	1140	1047.665778771655	1
2	1141	1048.361288382465	0
2	1170	1080.606690744869	1
2	1171	1081.970599755265	0
2	1207	1120.866034239868	1
2	1208	1121.49421949564	0
2	1215	1123.665082872589	1
2	1216	1124.323626753599	0
2	1250	1156.223490662086	1
2	1251	1157.512474247261	0
2	1265	1172.22052260427	1
2	1266	1172.349193191837	0
2	1290	1185.983185089228	1
2	1291	1186.308154823692	0
2	1300	1191.945468658531	1
2	1301	1192.974971436789	0
2	1325	1220.657649266491	1
2	1326	1221.942435910322	0
2	1350	1248.361875465552	1
2	1352	1248.939191869385	2
2	1354	1249.330447405767	3
2	1355	1249.758910571877	2
2	1358	1250.971531006973	1
2	1361	1252.421133393328	0
2	1365	1252.586254014393	1
2	1367	1253.882495984549	2
2	1368	1254.388375782873	1
2	1372	1254.547018606138	2
2	1373	1255.775630068313	1
2	1376	1257.674969339836	0
2	1465	1358.971914567405	1
2	1466	1359.521297078879	0
2	1470	1359.569913394882	1
2	1471	1360.947319374533	0
2	1500	1406.231747489226	1
2	1501	1406.877978538165	0
2	1520	1415.036705822718	1
2	1521	1415.112480297029	0
2	1525	1416.202494360082	1
2	1526	1417.022133896776	0
2	1545	1433.934190791804	1
2	1546	1434.987616080982	0
2	1550	1436.335256763046	1
2	1551	1436.337231156049	0
2	1555	1436.785974627877	1
2	1556	1437.842091556458	0
2	1585	1453.325842333746	1
2	1587	1453.891365680549	2
2	1588	1454.22835527892	1
2	1593	1455.928669440288	0
2	1597	1456.328077834475	1
2	1598	1457.329231317442	0
2	1625	1471.391785965757	1
2	1626	1472.401862238211	0
2	1630	1473.289609026351	1
2	1633	1473.898943387767	0
2	1720	1609.116283162477	1
2	1721	1609.877025253053	0
2	1730	1614.912772576026	1
2	1731	1615.249304578584	0
2	1765	1675.901956331259	1
2	1766	1676.004859149131	0
2	1795	1726.497698753152	1
2	1796	1726.896005979822	0
2	1825	1774.533982811006	1
2	1827	1775.213590928622	2
2	1828	1775.225315651729	1
2	1832	1775.252902671146	2
2	1833	1776.758560124099	1
2	1836	1778.579662560731	0
2	1850	1794.355378253667	1
2	1851	1794.774270388175	0
2	1875	1837.156807311269	1
2	1876	1838.997306513754	0
2	1935	1944.42318899607	1
2	1936	1944.581792775026	0
2	1970	1979.230304004443	1
2	1971	1979.795603536936	0
2	1975	1980.29209677615	1
2	1976	1981.575402566167	0
2	1980	1981.888990108423	1
2	1981	1983.028131137537	0
2	2035	2047.276782043925	1
2	2036	2048.140176476224	0
2	2045	2050.299848969366	1
2	2048	2051.92757685954	0
2	2055	2053.831979470812	1
2	2056	2055.056285281724	0
2	2070	2063.556119465992	1
2	2071	2064.022866683991	0
2	2115	2100.650599092926	1
2	2117	2100.972301411049	2
2	2118	2102.307466721266	1
2	2121	2104.173515801794	0
2	2150	2153.267656189264	1
2	2151	2153.672625803755	0
2	2155	2153.836187362265	1
2	2156	2155.576813602628	0
2	2175	2160.927850295461	1
2	2176	2161.821016997493	0
2	2190	2171.200128985493	1
2	2192	2171.249632760134	2
2	2193	2172.526717080191	1
2	2196	2173.755004842036	0
2	2215	2187.826123831623	1
2	2217	2188.326525945497	2
2	2219	2188.491941162865	3
2	2220	2188.69458430668	2
2	2225	2190.082970292099	1
2	2228	2191.816530694604	0
2	2235	2194.369419466709	1
2	2236	2195.301404787019	0
2	2270	2236.091295119498	1
2	2271	2237.582867190786	0
2	2275	2238.815464776233	1
2	2276	2238.917109790802	0
2	2320	2293.792464289119	1
2	2321	2294.921620604116	0
2	2355	2323.470265398556	1
2	2356	2324.769315445784	0
2	2390	2363.744417850984	1
2	2391	2365.164784820166	0
2	2395	2365.630401025734	1
2	2396	2366.536547183034	0
2	2400	2368.026152036948	1
2	2401	2368.095306351569	0
2	2535	2505.157305111335	1
2	2536	2506.165406002679	0
2	2565	2548.304028141604	1
2	2566	2548.943365337853	0
2	2595	2597.627940904358	1
2	2596	2598.0385129371	0
2	2605	2601.994168538102	1
2	2606	2602.683897259875	0
2	2610	2603.389534780641	1
2	2611	2604.477808323546	0
2	2615	2605.48458486915	1
2	2616	2605.848844705752	0
2	2645	2644.339285469348	1
2	2646	2645.515558099921	0
2	2650	2646.588440419301	1
2	2651	2647.365086787182	0
2	2680	2675.080352831871	1
2	2681	2676.443494039414	0
2	2700	2691.957145397193	1
2	2702	2692.396788823262	2
2	2703	2693.503273471792	1
2	2706	2695.051021300045	0
2	2715	2697.253127411221	1
2	2716	2697.968794984704	0
2	2725	2700.608046377326	1
2	2726	2701.830393853366	0
2	2735	2706.499446279177	1
2	2736	2707.074368065733	0
2	2745	2713.775950359186	1
2	2746	2715.453554324541	0
2	2770	2727.854545110648	1
2	2772	2728.777317825325	2
2	2773	2728.822341914457	1
2	2778	2730.391314838064	0
2	2782	2730.840072379867	1
2	2783	2731.916665483435	0
2	2790	2734.394977581041	1
2	2791	2735.091251613741	0
2	2805	2740.195990942656	1
2	2807	2741.125766495605	2
2	2810	2741.555288548316	1
2	2813	2743.21559352811	0
2	2817	2744.481775345969	1
2	2818	2745.086593347337	0
2	2822	2746.702393268019	1
2	2823	2746.748817041065	0
2	2830	2749.359339771285	1
2	2831	2749.763165381658	0
2	2910	2808.253983834302	1
2	2911	2808.995768563127	0
2	2940	2834.521971334549	1
2	2941	2835.057867828327	0
2	2945	2835.188359352082	1
2	2946	2836.333292295727	0
2	2950	2838.011289234258	1
2	2951	2838.071430679354	0
2	2955	2838.640605306641	1
2	2956	2839.93219223557	0
2	2965	2843.398735659091	1
2	2966	2844.074058924411	0
2	3030	2904.879642872074	1
2	3031	2905.922212357969	0
2	3065	2925.091040430262	1
2	3066	2926.370184292704	0
2	3105	2955.861892627309	1
2	3106	2956.989147982155	0
2	3125	2980.457518310258	1
2	3126	2981.005522273576	0
2	3195	3085.346922674955	1
2	3196	3086.033672770516	0
2	3235	3121.209634185629	1
2	3236	3121.682690844655	0
2	3240	3122.258661726843	1
2	3241	3123.641019246884	0
2	3287	3180.52617772427	1
2	3288	3181.032195876136	0
2	3305	3187.485004490308	1
2	3306	3187.570986066118	0
2	3310	3187.766757094039	1
2	3311	3189.389265283115	0
2	3315	3191.2708926626	1
2	3316	3191.312537872709	0
2	3340	3214.67383809864	1
2	3341	3215.250485862323	0
2	3362	3228.522613861178	1
2	3363	3229.051324518935	0
2	3395	3266.886928417899	1
2	3396	3266.915861743562	0
2	3400	3268.145323452266	1
2	3401	3268.196234777816	0
2	3430	3296.88465441551	1
2	3431	3297.102466897139	0
2	3435	3297.525879535747	1
2	3436	3298.928994811171	0
2	3445	3306.865372430017	1
2	3446	3306.941849768275	0
2	3455	3308.925692990279	1
2	3456	3310.1523157224	0
2	3470	3332.396540250201	1
2	3471	3333.736032358831	0
2	3475	3334.173277049174	1
2	3476	3335.203510756133	0
2	3485	3339.199772877389	1
2	3486	3339.778781109694	0
2	3500	3348.651402930998	1
2	3501	3348.783974630688	0
2	3505	3349.42481114128	1
2	3506	3350.100127196242	0
2	3555	3394.704163012015	1
2	3556	3394.962430682734	0
2	3565	3397.507529676483	1
2	3566	3397.97576992219	0
2	3570	3398.011722668988	1
2	3571	3399.594649586693	0
2	3605	3444.575825248855	1
2	3606	3445.752563745769	0
2	3660	3501.895979097208	1
2	3661	3502.654207941025	0
2	3710	3541.412189277008	1
2	3711	3542.427771482154	0
2	3725	3547.131305350974	1
2	3726	3548.508078771682	0
2	3760	3569.149506614034	1
2	3763	3569.77940027674	0
2	3965	3807.181722739363	1
2	3966	3808.133137821483	0
2	3970	3808.188791837822	1
2	3971	3810.085448404292	0
2	4000	3821.760643481813	1
2	4001	3822.46034731708	0
2	4005	3823.318654433831	1
2	4006	3824.018939478802	0
2	4010	3824.736546535564	1
2	4011	3825.307161853383	0
2	4035	3855.516896516993	1
2	4036	3856.836917860783	0
2	4060	3878.624497823673	1
2	4061	3878.974132131558	0
2	4090	3909.731240065048	1
2	4091	3910.205489322461	0
2	4125	3949.437650294642	1
2	4127	3950.022088034675	2
2	4128	3950.099980633992	1
2	4132	3950.526985646118	2
2	4133	3951.812869249198	1
2	4136	3953.584136054951	0
2	4140	3953.920594979171	1
2	4141	3955.472835347715	0
2	4160	3967.883302980284	1
2	4161	3968.397591025931	0
2	4165	3969.028466059359	1
2	4167	3969.975658605362	2
2	4168	3970.27093959338	1
2	4172	3971.463571568371	2
2	4173	3972.136832300564	1
2	4176	3973.64198197796	0
2	4195	3983.590582956268	1
2	4196	3984.532518126659	0
2	4242	4024.425753939542	1
2	4243	4024.90332062614	0
2	4270	4053.903153480494	1
2	4271	4055.390225393068	0
2	4280	4057.699450789689	1
2	4281	4059.108306985855	0
2	4285	4059.984248232062	1
2	4286	4060.881376047008	0
2	4290	4061.144778076786	1
2	4291	4062.288835923508	0
2	4300	4067.11700214343	1
2	4301	4068.660141138886	0
2	4320	4078.836862945424	1
2	4321	4079.895876678953	0
2	4330	4085.786917894986	1
2	4331	4086.502193656997	0
2	4345	4102.876579633163	1
2	4346	4103.51045428543	0
2	4360	4108.292900689573	1
2	4361	4109.624708748331	0
2	4365	4109.719359511301	1
2	4368	4111.447154341919	0
2	4372	4111.711669112498	1
2	4373	4113.369932320809	0
2	4377	4115.268607507855	1
2	4378	4115.283074712476	0
2	4382	4115.966473932022	1
2	4383	4117.00947304154	0
2	4390	4119.877228085127	1
2	4391	4120.01770293424	0
2	4425	4188.607205754091	1
2	4427	4189.241076292786	2
2	4428	4189.509986400803	1
2	4431	4191.325132031938	0
2	4435	4192.321951750877	1
2	4436	4192.976011047153	0
2	4455	4242.384532411549	1
2	4457	4243.066254779439	2
2	4458	4243.676249068571	1
2	4461	4245.052450449733	0
2	4510	4351.424122998166	1
2	4511	4352.644850675984	0
2	4540	4388.356017904761	1
2	4541	4390.313690415473	0
2	4560	4402.837940880614	1
2	4561	4404.02540980921	0
2	4570	4416.057255360486	1
2	4571	4416.533021136768	0
2	4605	4437.526699955108	1
2	4606	4439.119964172452	0
2	4630	4485.500024370314	1
2	4631	4486.499126104563	0
2	4640	4493.429703984287	1
2	4641	4494.406335139059	0
2	4705	4559.06976779089	1
2	4706	4559.342166874916	0
2	4710	4560.85582668476	1
2	4711	4561.005249966294	0
2	4740	4599.135678470955	1
2	4741	4600.324630385538	0
2	4775	4621.421863701004	1
2	4777	4621.620418800325	2
2	4778	4622.702152196663	1
2	4781	4624.117912746752	0
2	4800	4660.604802777097	1
2	4801	4660.700844481014	0
2	4810	4663.794953400321	1
2	4811	4663.864713027787	0
2	4850	4709.999183927584	1
2	4851	4710.971811808264	0
2	4855	4711.006801275069	1
2	4856	4712.90957891102	0
2	4875	4722.104897774879	1
2	4876	4722.489941400298	0
2	4890	4727.224435475535	1
2	4892	4727.296807624547	2
2	4893	4727.65844905777	1
2	4897	4727.958999682053	2
2	4898	4729.077806767357	1
2	4902	4730.122440741563	2
2	4903	4730.294694415388	1
2	4906	4731.803091956956	0
2	4940	4779.394979494243	1
2	4941	4780.498183193526	0
2	5015	4881.233348144638	1
2	5016	4881.293201806512	0
2	5020	4882.060780236117	1
2	5021	4883.049803799507	0
2	5025	4883.855112251974	1
2	5026	4884.428188481112	0
2	5035	4891.178873984989	1
2	5036	4893.040972699492	0
2	5040	4893.723552228515	1
2	5041	4894.433747232041	0
2	5060	4923.449372239117	1
2	5061	4923.859499027006	0
2	5075	4943.785502657604	1
2	5076	4944.063165061893	0
2	5080	4945.04421049631	1
2	5081	4945.847011414515	0
2	5095	4949.722030545519	1
2	5099	4950.431866443435	2
2	5101	4950.794033983324	3
2	5102	4950.804656806791	2
2	5105	4952.435284381563	1
2	5108	4953.814928518811	0
2	5112	4955.09333146881	1
2	5113	4955.323955492319	0
2	5117	4955.598363059692	1
2	5119	4956.086832661505	2
2	5120	4956.895157569291	1
2	5126	4957.987283620328	2
2	5127	4958.169702638702	1
2	5131	4958.829105932086	2
2	5133	4958.857401668283	3
2	5134	4959.908779325353	2
2	5138	4960.358978615428	3
2	5139	4961.883715243841	2
2	5143	4963.322531158509	3
2	5144	4963.609846138785	2
2	5147	4965.263446766341	1
2	5151	4965.661924841101	2
2	5152	4966.979157135466	1
2	5158	4968.441726742185	2
2	5159	4968.773413127491	1
2	5163	4969.399265027999	2
2	5164	4970.243314995633	1
2	5168	4970.355659065632	2
2	5170	4970.957320042481	3
2	5172	4971.307293778575	4
2	5173	4972.07049340477	3
2	5177	4973.217998834008	4
2	5178	4973.882793977501	3
2	5182	4975.343256725533	4
2	5183	4975.437181364389	3
2	5186	4976.743624263273	2
2	5189	4978.020352281274	1
2	5193	4978.0809325125	2
2	5194	4980.011492253484	1
2	5199	4981.662867068702	0
2	5217	4989.560482240872	1
2	5219	4990.058203572135	2
2	5220	4990.138619571567	1
2	5223	4992.052182534911	0
2	5265	5044.863323870727	1
2	5266	5044.882223980406	0
2	5270	5046.048344535809	1
2	5271	5046.548687665442	0
2	5350	5105.534571452579	1
2	5351	5106.40115730676	0
2	5360	5109.264450373155	1
2	5361	5110.190851144798	0
2	5370	5113.7701579247	1
2	5371	5114.232958199633	0
2	5395	5135.789777637636	1
2	5396	5136.337055208517	0
2	5410	5153.804517434562	1
2	5411	5155.017960834383	0
2	5420	5158.001904467813	1
2	5421	5158.575882236381	0
2	5425	5158.911064352443	1
2	5426	5160.116384328251	0
2	5435	5163.743288349229	1
2	5436	5163.748928997787	0
2	5450	5171.559744148797	1
2	5451	5172.69568914247	0
2	5470	5190.698772935312	1
2	5471	5191.532289974391	0
2	5485	5212.167261836472	1
2	5486	5212.921629117324	0
2	5550	5290.290072730405	1
2	5551	5291.028392572197	0
2	5580	5304.571882303997	1
2	5581	5305.814420471238	0
2	5630	5349.342163390856	1
2	5631	5350.58938861412	0
2	5670	5399.430918704809	1
2	5671	5399.977347629441	0
2	5680	5402.563254286231	1
2	5681	5404.350613205228	0
2	5695	5413.010073693411	1
2	5696	5414.462396010474	0
2	5715	5432.766960725166	1
2	5716	5434.308595388669	0
2	5765	5477.00895142921	1
2	5766	5478.040094118491	0
2	5770	5478.418084308666	1
2	5771	5479.389643919952	0
2	5775	5480.353678437432	1
2	5776	5480.630264501758	0
2	5817	5515.892192855685	1
2	5818	5516.871225418558	0
2	5822	5518.201992489783	1
2	5823	5518.557404054923	0
2	5830	5520.861527721566	1
2	5831	5521.410558728909	0
2	5840	5529.988297119692	1
2	5841	5530.381344765387	0
2	5905	5622.449293080083	1
2	5906	5622.770498577154	0
2	5925	5632.512885596283	1
2	5926	5633.726968790145	0
2	5980	5698.177817739173	1
2	5981	5699.187655048546	0
2	5985	5699.945788905255	1
2	5986	5700.863815043223	0
2	6125	5823.146612320007	1
2	6126	5823.236789986439	0
2	6140	5836.555374831309	1
2	6141	5837.653216073091	0
2	6175	5883.238635819583	1
2	6176	5884.643024175524	0
2	6190	5907.388254219127	1
2	6191	5908.712048850824	0
2	6220	5933.510218670485	1
2	6223	5934.792969743186	0
2	6260	5954.103030762299	1
2	6261	5955.70685666289	0
2	6270	5963.386176574067	1
2	6271	5963.52701291297	0
2	6275	5963.592997243033	1
2	6276	5965.174006030563	0
2	6280	5965.41981317882	1
2	6281	5966.772881725657	0
2	6310	5995.521904202088	1
2	6311	5996.24079598692	0
2	6325	6011.462165295183	1
2	6326	6011.472666967842	0
2	6330	6012.011687949937	1
2	6331	6012.804340289156	0
2	6335	6013.424928380073	1
2	6336	6014.326703063208	0
2	6355	6021.129805896314	1
2	6357	6021.152261418682	2
2	6360	6022.40015965752	1
2	6364	6024.01953585002	2
2	6365	6024.212989275862	1
2	6368	6025.875951209065	0
2	6375	6028.808674734141	1
2	6376	6029.067838147056	0
2	6380	6029.674271870626	1
2	6381	6030.652115876932	0
2	6385	6031.526209971246	1
2	6387	6031.717767057075	2
2	6388	6031.931538926024	1
2	6391	6033.540089231502	0
2	6395	6033.904255882949	1
2	6396	6035.49407052822	0
2	6415	6045.302161220414	1
2	6417	6045.352274910339	2
2	6418	6045.963354536137	1
2	6421	6047.902469179398	0
2	6440	6075.37544975875	1
2	6441	6076.023130010179	0
2	6450	6079.704045783477	1
2	6451	6080.546475550525	0
2	6475	6104.627495403316	1
2	6476	6106.071189063135	0
2	6490	6111.862713241697	1
2	6492	6112.235684753309	2
2	6493	6113.58059044024	1
2	6497	6113.656556583288	2
2	6500	6114.949968907889	1
2	6503	6116.765609492827	0
2	6510	6118.950805008246	1
2	6511	6120.223912004846	0
2	6515	6120.355823448901	1
2	6516	6121.715836935582	0
2	6520	6122.459391001256	1
2	6521	6123.100840977298	0
2	6545	6141.129129016581	1
2	6546	6142.151236157397	0
2	6600	6189.26403836173	1
2	6601	6189.389002805807	0
2	6620	6198.459633366632	1
2	6621	6198.989514934372	0
2	6635	6240.011552075698	1
2	6636	6240.094135262577	0
2	6680	6340.44030258436	1
2	6682	6340.954805846991	2
2	6683	6341.235267916844	1
2	6686	6342.84014132429	0
2	6815	6519.037313517867	1
2	6816	6519.853760958574	0
2	6820	6520.872209344325	1
2	6821	6521.2101667938	0
2	6860	6586.862976457555	1
2	6862	6587.494513605619	2
2	6863	6587.862381422628	1
2	6866	6589.179244525094	0
2	6895	6623.739615118541	1
2	6896	6625.449706591128	0
2	6910	6630.24678862663	1
2	6912	6631.030990230665	2
2	6913	6631.928970391885	1
2	6917	6632.545531189961	2
2	6918	6633.174073205725	1
2	6921	6634.971362211392	0
2	6925	6635.075642417613	1
2	6926	6636.847700657719	0
2	6930	6637.439904566059	1
2	6931	6638.49453909474	0
2	6955	6660.757082905545	1
2	6956	6661.736796234149	0
2	6985	6698.892297457813	1
2	6987	6699.137233527354	2
2	6988	6699.180708240177	1
2	6991	6700.469289803523	0
2	7005	6705.673791869128	1
2	7006	6706.545899374409	0
2	7015	6720.11227053516	1
2	7016	6720.877768368976	0
2	7035	6736.761613843762	1
2	7037	6737.688291143278	2
2	7038	6737.693403398515	1
2	7041	6739.431055884333	0
2	7120	6840.924348593324	1
2	7122	6841.118413083097	2
2	7123	6841.462479022196	1
2	7126	6842.676004965095	0
2	7130	6843.832049321172	1
2	7132	6843.850658901583	2
2	7133	6843.939766313372	1
2	7137	6843.994067387176	2
2	7138	6845.832135194776	1
2	7141	6847.321760362064	0
2	7200	6900.915084894726	1
2	7201	6901.723407124717	0
2	7245	6947.911425636316	1
2	7246	6949.740010163183	0
2	7295	6989.819715375238	1
2	7296	6989.88696268424	0
2	7320	7013.553203657533	1
2	7321	7014.003959491656	0
2	7325	7015.443816114126	1
2	7326	7015.467409579077	0
2	7340	7023.023835227772	1
2	7341	7024.290347006368	0
2	7355	7030.675710805786	1
2	7356	7030.882257325379	0
2	7365	7032.727969817389	1
2	7367	7032.930788696891	2
2	7368	7033.656943447692	1
2	7372	7034.898637370922	2
2	7373	7035.161914292527	1
2	7376	7036.489066573968	0
2	7460	7145.52194224425	1
2	7461	7146.167680884099	0
2	7485	7159.798437822921	1
2	7486	7159.959885487868	0
2	7495	7161.5101110728	1
2	7496	7162.66368432173	0
2	7540	7224.955642359503	1
2	7541	7225.599920169262	0
2	7545	7225.840632939354	1
2	7547	7226.294514514872	2
2	7548	7227.477144458515	1
2	7552	7228.483942218927	2
2	7553	7229.395706835387	1
2	7557	7231.210118401791	2
2	7558	7231.235399689151	1
2	7561	7233.010196886024	0
2	7570	7237.50780070266	1
2	7571	7238.704891635307	0
2	7590	7259.752471672815	1
2	7591	7259.962271479566	0
2	7615	7281.90471771565	1
2	7617	7282.956966829836	2
2	7618	7283.790319622554	1
2	7621	7285.401046080575	0
2	7640	7309.969036893674	1
2	7642	7311.247580596835	2
2	7643	7311.259359505779	1
2	7646	7312.746001129976	0
2	7670	7328.045323823566	1
2	7671	7328.667906910826	0
2	7675	7329.272589677791	1
2	7676	7330.148575031285	0
2	7720	7366.829555070097	1
2	7721	7367.687757114081	0
2	7810	7498.218703761569	1
2	7811	7499.863709952053	0
2	7845	7522.952575056819	1
2	7846	7524.409568664504	0
2	7870	7551.133650361584	1
2	7871	7552.035790572382	0
2	7915	7613.105595385941	1
2	7916	7613.802446611518	0
2	7925	7630.880408376463	1
2	7926	7632.792871044182	0
2	8015	7726.531454225988	1
2	8016	7728.473892494849	0
2	8020	7730.264314434557	1
2	8021	7730.37688719537	0
2	8060	7765.626095242442	1
2	8061	7766.572326559177	0
2	8070	7769.448433683488	1
2	8071	7770.583302322518	0
2	8075	7771.608772330525	1
2	8076	7772.006668033007	0
2	8080	7772.414060505005	1
2	8081	7773.324958331067	0
2	8090	7776.928451740911	1
2	8091	7777.099008426928	0
2	8095	7777.962019706835	1
2	8096	7778.571687161663	0
2	8100	7778.709111144056	1
2	8103	7780.412622371615	0
2	8107	7781.869147747104	1
2	8108	7781.921476564483	0
2	8112	7782.304655623506	1
2	8113	7783.247039354892	0
2	8130	7795.015343712909	1
2	8131	7795.168130389939	0
2	8135	7795.769171055539	1
2	8136	7796.99615757406	0
2	8140	7797.852871498994	1
2	8143	7798.923564461211	0
2	8160	7806.482714780247	1
2	8161	7807.67805425099	0
2	8180	7818.704965470659	1
2	8181	7820.07745366498	0
2	8190	7823.595397927556	1
2	8191	7824.750880060892	0
2	8200	7828.551746536089	1
2	8201	7829.607672846621	0
2	8205	7829.865253222751	1
2	8208	7831.075321413694	0
2	8212	7831.86331410347	1
2	8213	7832.658963819524	0
2	8217	7832.769733380214	1
2	8218	7834.48629390963	0
2	8225	7836.673081520349	1
2	8226	7837.924975478022	0
2	8260	7865.779941515981	1
2	8262	7865.844519682683	2
2	8263	7865.8752953811	1
2	8266	7867.575460786783	0
2	8285	7886.184584214188	1
2	8286	7887.001489583688	0
2	8290	7887.33379775755	1
2	8291	7888.740899023699	0
2	8295	7889.240101750719	1
2	8296	7890.599032835203	0
2	8305	7896.361619673365	1
2	8306	7896.7320853652	0
2	8322	7905.232193329287	1
2	8323	7905.763283875177	0
2	8335	7913.705763786858	1
2	8336	7914.104588065971	0
2	8355	7925.122348046102	1
2	8356	7925.497796468654	0
2	8375	7937.57727240296	1
2	8376	7937.681533814436	0
2	8385	7940.512255878083	1
2	8386	7941.59947463022	0
2	8390	7941.903785641164	1
2	8392	7942.458986646597	2
2	8393	7943.15120556829	1
2	8396	7944.783503531753	0
2	8400	7945.651060686098	1
2	8401	7945.996558181471	0
2	8410	7948.492759148347	1
2	8411	7949.62895529265	0
2	8440	7980.410110748238	1
2	8441	7981.036287100464	0
2	8480	8026.440270642544	1
2	8481	8026.459769436137	0
2	8500	8048.196445928584	1
2	8501	8048.217940503568	0
2	8540	8078.997531264131	1
2	8541	8079.748800484019	0
2	8580	8101.327372567598	1
2	8581	8102.234132593374	0
2	8610	8124.364062138159	1
2	8611	8125.1702773178	0
2	8635	8147.87863812425	1
2	8636	8149.160255623418	0
2	8640	8149.174937709446	1
2	8641	8150.390551314498	0
2	8660	8163.491078779775	1
2	8661	8164.720042664029	0
2	8665	8166.342248469381	1
2	8666	8166.397149514623	0
2	8670	8167.404540187308	1
2	8671	8167.618769080967	0
2	8680	8171.615715417239	1
2	8681	8172.340633295138	0
2	8725	8245.341760242984	1
2	8726	8246.905960515809	0
2	8775	8294.224725173734	1
2	8776	8295.111970280023	0
2	8795	8315.416637209993	1
2	8796	8315.551287223065	0
2	8800	8316.679162041633	1
2	8801	8317.243707260528	0
2	8805	8318.605949812763	1
2	8806	8318.78344184518	0
2	8865	8373.925859445894	1
2	8866	8375.480418147314	0
2	8870	8376.380410451214	1
2	8871	8376.875487778317	0
2	8880	8381.569029267251	1
2	8881	8381.924463730506	0
2	8905	8397.348944991072	1
2	8906	8398.030550795621	0
2	8910	8398.272365664945	1
2	8911	8399.372982238061	0
2	8915	8399.389733588086	1
2	8917	8400.866520349609	2
2	8918	8400.884248195975	1
2	8922	8401.461349823271	2
2	8923	8402.099721732377	1
2	8927	8402.516365759893	2
2	8928	8403.812711812942	1
2	8931	8405.28548521643	0
2	8935	8406.403701795262	1
2	8936	8406.616039157859	0
2	8965	8457.126625831176	1
2	8966	8458.201707828934	0
2	8990	8480.563606506904	1
2	8991	8481.21196069243	0
2	9060	8521.869775493981	1
2	9062	8522.56918677559	2
2	9063	8523.165753337685	1
2	9067	8523.785980183749	2
2	9068	8524.449275084157	1
2	9071	8526.148379035797	0
2	9080	8532.637919066318	1
2	9081	8532.881290211073	0
2	9095	8551.710045163775	1
2	9097	8552.951715311689	2
2	9098	8553.048360584628	1
2	9101	8554.483537000369	0
2	9105	8555.205729213402	1
2	9106	8555.984022891473	0
2	9110	8557.402044415664	1
2	9111	8557.625236171063	0
2	9120	8575.330653101074	1
2	9121	8575.601768793279	0
2	9135	8589.689990522822	1
2	9136	8590.547549139291	0
2	9140	8590.558557602388	1
2	9141	8592.06126859463	0
2	9250	8751.407696946306	1
2	9251	8751.455939853156	0
2	9255	8751.57369790837	1
2	9256	8752.755448358098	0
2	9260	8754.535803054517	1
2	9261	8754.670781365374	0
2	9270	8757.090889991146	1
2	9272	8757.74886270035	2
2	9274	8758.127143024506	3
2	9275	8758.306783983755	2
2	9278	8760.132136529583	1
2	9281	8762.071963109906	0
2	9290	8767.925605360731	1
2	9291	8768.323567061986	0
2	9295	8769.448606047967	1
2	9296	8770.244671381193	0
2	9300	8770.621593947146	1
2	9301	8771.450033410194	0
2	9315	8785.120366420196	1
2	9317	8785.212585823578	2
2	9318	8786.337968771944	1
2	9323	8788.179247019107	0
2	9345	8814.928149212334	1
2	9347	8816.533991807744	2
2	9348	8816.555362854741	1
2	9351	8817.834343362629	0
2	9420	8922.293364328978	1
2	9423	8922.530335205941	0
2	9470	8985.752746224704	1
2	9471	8987.254421846689	0
2	9480	8991.681739474445	1
2	9481	8992.64275988853	0
2	9505	9001.758987701875	1
2	9506	9002.547835844428	0
2	9525	9018.122030392448	1
2	9526	9018.51275818565	0
2	9555	9056.035798803385	1
2	9556	9056.809877742478	0
2	9620	9110.766364538731	1
2	9621	9111.868936711975	0
2	9630	9122.383481574246	1
2	9631	9122.414670552999	0
2	9645	9127.920102009113	1
2	9648	9128.290413343744	0
2	9652	9128.91593933539	1
2	9653	9130.131161120558	0
2	9665	9145.180586972286	1
2	9666	9146.722018578652	0
2	9670	9147.815009714107	1
2	9671	9148.028539714407	0
2	9722	9199.87864976818	1
2	9723	9199.925834506077	0
2	9727	9200.297630119499	1
2	9728	9201.530807022636	0
2	9732	9202.930199984312	1
2	9733	9203.370138637048	0
2	9737	9204.568082244613	1
2	9738	9204.641363566999	0
2	9745	9206.586673609189	1
2	9747	9207.125201317376	2
2	9748	9208.406623154019	1
2	9751	9209.695428680141	0
2	9815	9268.581503327485	1
2	9816	9269.06743882988	0
2	9825	9274.852527959296	1
2	9826	9276.499174026832	0
2	9835	9279.280794097129	1
2	9839	9279.695791464984	2
2	9840	9280.635545036596	1
2	9843	9282.143543337312	0
2	9945	9394.22690577928	1
2	9946	9394.883786269119	0
2	9950	9394.960367141798	1
2	9952	9395.072292924799	2
2	9953	9396.164691539882	1
2	9956	9398.032402089266	0
2	9960	9398.063043083517	1
2	9961	9399.656538154958	0
2	9965	9399.873500042775	1
2	9966	9401.184254163159	0
2	9970	9401.45231285937	1
2	9971	9402.836591102397	0
2	9990	9419.857975255572	1
2	9991	9420.702161870415	0
2	9995	9420.867470434048	1
2	9997	9421.727738758646	2
2	9998	9422.590598292353	1
2	10002	9422.622947187785	2
2	10003	9424.457432364377	1
2	10009	9425.849330849576	2
2	10010	9426.189588331881	1
2	10013	9427.564475020657	0
2	10040	9482.660130323239	1
2	10041	9482.950135917669	0
2	10045	9483.376354746351	1
2	10046	9484.684338978385	0
2	10050	9485.418322137669	1
2	10051	9486.076502708798	0
2	10090	9557.54991250485	1
2	10091	9557.709744994311	0
2	10100	9570.174663985997	1
2	10101	9571.131193944401	0
2	10135	9593.211740228522	1
2	10137	9593.290441954667	2
2	10138	9594.046055973526	1
2	10144	9595.204369875174	2
2	10145	9595.59662713429	1
2	10149	9596.170099352819	2
2	10150	9597.267683705707	1
2	10153	9599.239322401975	0
2	10157	9600.103834969443	1
2	10159	9600.350484006281	2
2	10161	9600.750288735937	3
2	10162	9601.028287646194	2
2	10165	9602.77784632912	1
2	10168	9604.026592965071	0
2	10230	9682.214173421127	1
2	10231	9682.418947700128	0
2	10250	9714.488358387632	1
2	10251	9714.523531646799	0
2	10275	9742.331087399066	1
2	10276	9742.469953021947	0
2	10290	9759.437172922804	1
2	10291	9759.932789560081	0
2	10312	9770.025238636675	1
2	10313	9770.24266307881	0
2	10325	9774.560148349523	1
2	10326	9775.941234511569	0
2	10335	9795.009214223093	1
2	10336	9795.042985108836	0
2	10345	9797.998997628381	1
2	10348	9799.400689201784	0
2	10375	9821.847820094123	1
2	10378	9823.705060852166	0
2	10395	9839.942016351522	1
2	10396	9841.116850953441	0
2	10415	9849.493988546924	1
2	10418	9850.035671620822	0
2	10450	9865.370077292394	1
2	10451	9866.85009119327	0
2	10455	9866.910335869893	1
2	10456	9868.665320360687	0
2	10505	9910.407429232342	1
2	10506	9911.04824704902	0
2	10512	9911.916628821561	1
2	10513	9912.583974142016	0
2	10517	9913.353762408323	1
2	10518	9914.105578112618	0
2	10522	9915.276225539915	1
2	10523	9915.365463200414	0
2	10535	9924.988913497646	1
2	10536	9926.274136784423	0
2	10540	9926.565256995983	1
2	10541	9927.86657932413	0
2	10545	9928.249377902714	1
2	10547	9929.212152999599	2
2	10548	9929.548201240163	1
2	10552	9929.848195521273	2
2	10553	9930.921823816869	1
2	10556	9932.33230529477	0
2	10585	9958.877087989081	1
2	10587	9959.312962213007	2
2	10589	9959.499376692592	3
2	10590	9959.807104147172	2
2	10594	9960.381018118195	3
2	10595	9961.010958752728	2
2	10598	9962.338404976896	1
2	10602	9963.348988854091	2
2	10603	9963.813584520428	1
2	10606	9965.148701485193	0
2	10680	10022.763483774202	1
2	10681	10024.292038395333	0
2	10695	10036.994616007777	1
2	10696	10037.72438810126	0
2	10700	10037.73998520049	1
2	10701	10039.087054376799	0
2	10720	10066.84819503224	1
2	10721	10067.230168826359	0
2	10735	10075.817851189427	1
2	10736	10076.528829769265	0
2	10755	10086.548152476383	1
2	10756	10088.338419536134	0
2	10765	10103.07305445988	1
2	10766	10103.779545576496	0
2	10810	10161.717335467086	1
2	10811	10162.644892614158	0
2	10865	10214.780693744019	1
2	10866	10215.986401459563	0
2	10900	10278.292916464425	1
2	10901	10279.025006901836	0
2	10935	10309.242558582438	1
2	10936	10309.464961570575	0
2	10940	10309.610588181614	1
2	10941	10310.815189654454	0
2	10952	10314.244097252208	1
2	10953	10314.355238759778	0
2	10985	10333.473761905091	1
2	10986	10334.632891229948	0
2	11000	10338.405813017681	1
2	11001	10338.827200376651	0
2	11035	10359.8405986988	1
2	11036	10360.766309543801	0
2	11040	10362.319781823858	1
2	11041	10362.40307596988	0
2	11045	10363.2838475711	1
2	11046	10363.619961610538	0
2	11060	10377.05759804599	1
2	11061	10377.872232446461	0
2	11070	10387.119687580676	1
2	11071	10388.497606722219	0
2	11095	10416.422198240966	1
2	11096	10416.448583490381	0
2	11105	10426.774121599281	1
2	11106	10427.100611474363	0
2	11125	10441.660111789914	1
2	11126	10442.695715268146	0
2	11130	10443.171541520207	1
2	11131	10444.114190375436	0
2	11137	10444.838300026779	1
2	11138	10445.844296383861	0
2	11160	10482.80721067435	1
2	11161	10483.846851978731	0
2	11165	10484.477253611403	1
2	11167	10484.574575954395	2
2	11169	10484.579540478552	3
2	11170	10485.708145851736	2
2	11174	10486.149146378199	3
2	11176	10486.355239038372	4
2	11177	10487.013894085494	3
2	11180	10488.841257323419	2
2	11184	10489.079973301344	3
2	11186	10489.423828549337	4
2	11187	10490.384554515501	3
2	11192	10491.92433807878	2
2	11195	10493.650133714361	1
2	11198	10495.035692891573	0
2	11260	10595.405035706528	1
2	11261	10595.798568408291	0
2	11295	10634.605633594606	1
2	11297	10634.63702059369	2
2	11299	10634.921734330712	3
2	11300	10635.453746700551	2
2	11303	10636.924698576036	1
2	11306	10638.868370442542	0
2	11310	10639.828946454709	1
2	11311	10640.359444811272	0
2	11315	10641.616181262455	1
2	11316	10642.274803166541	0
2	11320	10642.871599770614	1
2	11321	10643.579370411376	0
2	11325	10645.224992562604	1
2	11326	10645.570044662694	0
2	11380	10717.186280491961	1
2	11381	10717.429507363157	0
2	11385	10717.484145462196	1
2	11386	10719.365965462045	0
2	11420	10761.088702591997	1
2	11421	10761.675642412894	0
2	11465	10815.200537895303	1
2	11466	10815.727588215965	0
2	11545	10909.021586914316	1
2	11546	10910.180020160838	0
2	11560	10929.6331540418	1
2	11561	10930.636379663326	0
2	11590	10975.248562938079	1
2	11591	10975.568761150836	0
2	11600	10988.354364911567	1
2	11601	10989.25371987621	0
2	11630	11009.816738394847	1
2	11631	11010.956983469559	0
2	11695	11075.384438546867	1
2	11696	11075.997081942001	0
2	11700	11076.112702654794	1
2	11702	11076.901912892195	2
2	11703	11077.427356187889	1
2	11706	11078.702492409275	0
2	11710	11079.490233228275	1
2	11712	11080.425378731225	2
2	11714	11080.617781376246	3
2	11715	11080.665266777837	2
2	11718	11081.973354328499	1
2	11721	11083.707416611426	0
2	11760	11107.363562046423	1
2	11761	11109.084565855921	0
2	11765	11110.387969467639	1
2	11766	11110.689289008998	0
2	11810	11149.135903913575	1
2	11811	11149.750261692246	0
2	11820	11152.720985274798	1
2	11821	11153.100291247209	0
2	11840	11160.37084916122	1
2	11842	11160.385992207995	2
2	11843	11161.525160105494	1
2	11846	11163.517191053708	0
2	11870	11193.989821365858	1
2	11871	11194.313315355838	0
2	11880	11196.621317745224	1
2	11881	11197.67543462286	0
2	11910	11227.178636512979	1
2	11911	11228.408615465497	0
2	11915	11228.962724535729	1
2	11916	11230.290374345367	0
2	11935	11258.284197320527	1
2	11936	11259.000039793702	0
2	11940	11259.444447054164	1
2	11941	11260.850702589901	0
2	11945	11261.98270664692	1
2	11946	11262.240673252905	0
2	11965	11283.852343353503	1
2	11966	11284.148436444444	0
2	11980	11298.55050043322	1
2	11981	11298.871830924168	0
2	11995	11307.703098201379	1
2	11996	11309.284198229511	0
2	12010	11336.112801499514	1
2	12011	11336.982193308437	0
2	12015	11337.54183213911	1
2	12020	11338.909318577425	0
2	12035	11347.372289764217	1
2	12036	11347.640506139359	0
2	12045	11349.235849028579	1
2	12048	11350.769925411938	0
2	12060	11374.009796565506	1
2	12061	11374.684155578574	0
2	12070	11378.444915827254	1
2	12071	11379.182702017938	0
2	12085	11389.300354692182	1
2	12086	11390.697418098222	0
2	12095	11392.800518054076	1
2	12096	11393.710067484412	0
2	12110	11405.762268977775	1
2	12111	11405.826540503912	0
2	12150	11465.995955416466	1
2	12153	11467.186981108835	0
2	12165	11471.716265015095	1
2	12166	11472.25159383591	0
2	12220	11512.199405669808	1
2	12223	11513.995501751812	0
2	12227	11515.794511295419	1
2	12228	11515.812583490634	0
2	12232	11517.15492411878	1
2	12233	11517.370524683023	0
2	12270	11565.871148664271	1
2	12271	11565.983447181289	0
2	12285	11577.451092569993	1
2	12286	11578.628078857442	0
2	12295	11585.218102859934	1
2	12296	11585.940548668985	0
2	12330	11614.582009218928	1
2	12331	11615.693590503466	0
2	12365	11657.642148789638	1
2	12366	11658.512319024655	0
2	12420	11707.516757494511	1
2	12421	11708.807953998643	0
2	12475	11770.866557255497	1
2	12476	11771.222855034054	0
2	12490	11781.303004285716	1
2	12491	11782.720267391642	0
2	12495	11783.102422811394	1
2	12496	11784.083840309334	0
2	12515	11794.9637203487	1
2	12516	11796.424404546501	0
2	12525	11799.985046098433	1
2	12526	11800.429130111014	0
2	12530	11800.985498982	1
2	12531	11801.749809415577	0
2	12540	11834.920282343083	1
2	12541	11836.16623561626	0
2	12545	11836.720132891542	1
2	12546	11837.549293295123	0
2	12550	11837.608913609671	1
2	12552	11838.493541999099	2
2	12553	11839.341166183368	1
2	12557	11839.40252305386	2
2	12558	11840.799561282263	1
2	12562	11841.008821419949	2
2	12564	11841.272648827682	3
2	12565	11842.298526583069	2
2	12569	11842.3417143275	3
2	12571	11842.767175697761	4
2	12572	11843.852854217232	3
2	12575	11845.648628038929	2
2	12578	11846.883220794254	1
2	12581	11848.274239028447	0
2	12600	11861.492822893005	1
2	12601	11862.763207530319	0
2	12605	11863.35743946475	1
2	12606	11864.33932398641	0
2	12615	11885.738088330261	1
2	12616	11886.336694207237	0
2	12635	11899.232153587704	1
2	12636	11899.374482441143	0
2	12700	11958.710350751632	1
2	12701	11959.191024240595	0
2	12715	11976.566234911004	1
2	12716	11977.219110145061	0
2	12720	11977.372681646796	1
2	12721	11978.514306937544	0
2	12730	11980.58079917606	1
2	12731	11981.307180142048	0
2	12735	11982.346711464081	1
2	12736	11982.900674046221	0
2	12765	12034.212747927442	1
2	12766	12035.132461298557	0
2	12790	12053.345860728862	1
2	12791	12053.381841662623	0
2	12810	12068.47532657936	1
2	12811	12070.136483377466	0
2	12815	12071.202624227	1
2	12816	12071.583184906343	0
2	12835	12086.882827357225	1
2	12836	12088.191916614075	0
2	12845	12090.535359336503	1
2	12847	12091.051895646036	2
2	12849	12091.18905363075	3
2	12851	12091.938883963282	4
2	12853	12092.111996164965	5
2	12854	12092.474786240119	4
2	12857	12093.774591553468	3
2	12861	12094.015900026833	4
2	12862	12095.755447697524	3
2	12865	12097.271782847192	2
2	12869	12098.636321970232	3
2	12870	12099.004632650945	2
2	12873	12100.86467327464	1
2	12876	12102.581993081678	0
2	12890	12106.778446256001	1
2	12891	12108.205372961861	0
2	12910	12115.566105843665	1
2	12912	12115.661790279997	2
2	12914	12116.822347017861	3
2	12915	12116.935393029747	2
2	12918	12118.164975000468	1
2	12921	12119.711667682526	0
2	12925	12120.970994173568	1
2	12926	12121.370914928352	0
2	12965	12159.11270979434	1
2	12966	12160.721338457276	0
2	12970	12161.567294789886	1
2	12971	12162.618164790084	0
2	12980	12166.570601601614	1
2	12981	12166.841249894897	0
2	12985	12166.97360288066	1
2	12986	12168.200693951535	0
2	12990	12168.521986986228	1
2	12991	12169.902801922324	0
2	13045	12238.76006794466	1
2	13046	12239.518779869028	0
2	13065	12248.601163054972	1
2	13066	12248.800988146557	0
2	13110	12348.891359452464	1
2	13111	12349.72290537526	0
2	13162	12419.829883942063	1
2	13164	12420.260916344647	2
2	13165	12420.359034941847	1
2	13168	12421.912821383158	0
2	13175	12424.779993502499	1
2	13177	12425.01101622221	2
2	13178	12425.724929025526	1
2	13182	12427.296443789183	2
2	13183	12427.663400824684	1
2	13186	12429.025359567943	0
2	13190	12429.406438629484	1
2	13191	12430.461671400013	0
2	13195	12431.819138694085	1
2	13196	12432.013637747558	0
2	13235	12471.631597825393	1
2	13236	12472.169577940878	0
2	13240	12472.57515287608	1
2	13241	12473.601226467778	0
2	13255	12486.502020867309	1
2	13256	12488.291424949646	0
2	13260	12489.148537197979	1
2	13261	12490.146119112886	0
2	13265	12491.02251310361	1
2	13266	12491.372006450213	0
2	13285	12507.642967990022	1
2	13286	12508.954599041676	0
2	13295	12513.995557639374	1
2	13296	12514.694361948809	0
2	13315	12520.150200291185	1
2	13316	12521.694520894554	0
2	13340	12571.425086795495	1
2	13341	12571.84653941679	0
2	13360	12597.80955864303	1
2	13361	12597.883636215368	0
2	13365	12598.154540431204	1
2	13366	12599.121404143648	0
2	13370	12599.183431579121	1
2	13371	12600.544268111365	0
2	13425	12658.819443403119	1
2	13426	12659.659474072376	0
2	13445	12691.084363351669	1
2	13447	12691.152193239585	2
2	13448	12692.820875794169	1
2	13451	12694.331480610844	0
2	13460	12696.778107027316	1
2	13462	12697.465475380785	2
2	13463	12698.097418345535	1
2	13467	12698.826511526683	2
2	13468	12700.066074603634	1
2	13471	12701.925930705132	0
2	13475	12701.938641046693	1
2	13477	12702.353961518377	2
2	13479	12703.695421366406	3
2	13480	12703.724551340217	2
2	13483	12705.572024416575	1
2	13487	12706.691811629783	2
2	13488	12707.177355132276	1
2	13492	12707.340309222021	2
2	13493	12708.543367475109	1
2	13496	12710.177145635919	0
2	13540	12749.096748413913	1
2	13542	12749.544819271949	2
2	13543	12750.377586887712	1
2	13546	12751.731339825439	0
2	13555	12769.210200442694	1
2	13556	12770.253569930004	0
2	13560	12771.249054399667	1
2	13561	12771.623123436192	0
2	13660	12873.798975568491	1
2	13661	12874.714746291612	0
2	13665	12875.141585875337	1
2	13666	12876.464138186586	0
2	13705	12926.916175811121	1
2	13706	12927.98349430693	0
2	13745	12976.503885452194	1
2	13746	12977.062192279327	0
2	13775	13007.538863637461	1
2	13776	13008.608152806617	0
2	13800	13033.852042679339	1
2	13801	13033.99516159092	0
2	13825	13077.042241856126	1
2	13826	13077.576064095293	0
2	13830	13077.73471176564	1
2	13832	13078.658309655308	2
2	13833	13079.418963479829	1
2	13836	13080.695005934332	0
2	13875	13114.751238955795	1
2	13876	13115.125337425963	0
2	13945	13196.455830193802	1
2	13946	13197.29482418323	0
2	13975	13221.959338138943	1
2	13977	13222.497664345687	2
2	13978	13222.825651499891	1
2	13981	13224.465453628713	0
2	14005	13263.553510692234	1
2	14008	13264.525925030882	0
2	14055	13327.383050704444	1
2	14056	13328.569452400754	0
2	14065	13337.835332572841	1
2	14066	13338.848378402856	0
2	14120	13382.427713955295	1
2	14121	13383.594802499987	0
2	14130	13389.160069817924	1
2	14131	13389.889244177347	0
2	14135	13391.23619758391	1
2	14139	13391.528682265977	2
2	14140	13391.629115410117	1
2	14143	13393.399462822234	0
2	14147	13393.959043509115	1
2	14148	13395.268456090582	0
2	14200	13501.81208494838	1
2	14201	13502.73710875749	0
2	14235	13554.893249244987	1
2	14236	13556.125595193302	0
2	14240	13556.975427570266	1
2	14241	13557.643257998435	0
2	14295	13649.210261359929	1
2	14296	13650.326327589052	0
2	14300	13651.404697532732	1
2	14301	13652.183753972026	0
2	14315	13683.367292860676	1
2	14316	13684.333239422001	0
2	14335	13704.42528944745	1
2	14336	13704.656195846757	0
2	14355	13722.016043852328	1
2	14356	13722.738487693542	0
2	14390	13752.613245873741	1
2	14391	13753.856011461194	0
2	14420	13784.829790609103	1
2	14421	13785.947967490176	0
2	14450	13811.527767118586	1
2	14451	13812.873522971886	0
2	14455	13813.036381837448	1
2	14456	13814.800651842858	0
2	14505	13855.581250528554	1
2	14506	13855.707738834324	0
2	14520	13869.729782364321	1
2	14521	13870.295429700386	0
2	14540	13895.806622161954	1
2	14541	13896.094035879108	0
2	14560	13934.969486775433	1
2	14561	13935.168674017771	0
2	14610	14014.463706995229	1
2	14611	14015.843059327305	0
2	14680	14067.31071944452	1
2	14682	14067.913242451136	2
2	14683	14068.386590380966	1
2	14687	14068.531577692597	2
2	14688	14069.984388918243	1
2	14691	14071.197761079482	0
2	14695	14071.613639842296	1
2	14696	14073.088689160533	0
2	14702	14074.65141998027	1
2	14703	14074.697028491646	0
2	14707	14074.807902880758	1
2	14708	14076.092826904356	0
2	14720	14079.821101798576	1
2	14722	14080.522878565048	2
2	14723	14080.911037249195	1
2	14726	14082.648205699103	0
2	14740	14088.5623951124	1
2	14741	14089.599795497478	0
2	14745	14090.778563898602	1
2	14746	14090.944723103278	0
2	14750	14091.58637073211	1
2	14752	14092.285826758164	2
2	14753	14092.747225564987	1
2	14756	14093.952076059662	0
2	14765	14096.166356643213	1
2	14766	14097.833043179743	0
2	14790	14118.052059995969	1
2	14791	14118.835427615116	0
2	14795	14120.424940787696	1
2	14796	14120.57674099158	0
2	14805	14123.253699286755	1
2	14806	14124.248087418165	0
2	14840	14144.778663034494	1
2	14841	14145.263897974845	0
2	14880	14200.658533948191	1
2	14881	14201.747867285356	0
2	14945	14262.313627015249	1
2	14946	14263.701702869234	0
2	15000	14357.565859541487	1
2	15001	14358.460385174065	0
2	15060	14412.921775505885	1
2	15061	14414.378138620463	0
2	15075	14420.670436439062	1
2	15076	14420.985348843693	0
2	15125	14463.278558806243	1
2	15126	14464.222274585091	0
2	15135	14467.507487138072	1
2	15136	14468.68504018825	0
2	15140	14470.019667990933	1
2	15141	14470.04564533778	0
2	15170	14498.624839027958	1
2	15171	14499.794614046197	0
2	15175	14500.351117460407	1
2	15177	14501.363180347189	2
2	15178	14501.519005867224	1
2	15182	14501.929266567537	2
2	15183	14503.276331467684	1
2	15186	14504.753681072723	0
2	15195	14514.427202791514	1
2	15196	14514.735905258567	0
2	15210	14522.551925586986	1
2	15211	14522.59901893943	0
2	15250	14581.664122624969	1
2	15251	14581.780394551745	0
2	15265	14588.103935595774	1
2	15266	14589.548242515571	0
2	15295	14615.714371322508	1
2	15296	14616.817769424585	0
2	15300	14617.537931863229	1
2	15301	14618.763358794493	0
2	15305	14619.713343459275	1
2	15306	14620.080198244159	0
2	15310	14620.47044645829	1
2	15311	14621.417831471902	0
2	15315	14622.437138811587	1
2	15316	14622.848045451906	0
2	15330	14633.586308447417	1
2	15331	14634.294088615585	0
2	15340	14645.387988718029	1
2	15341	14645.731160543773	0
2	15355	14663.668771891627	1
2	15356	14663.920436579624	0
2	15377	14692.275744593438	1
2	15378	14692.298952600928	0
2	15382	14692.882766311402	1
2	15383	14693.998050010214	0
2	15395	14698.648565985996	1
2	15398	14700.386410485708	0
2	15405	14703.058132454005	1
2	15408	14704.133689455443	0
2	15430	14717.239122985372	1
2	15432	14717.80129134283	2
2	15433	14718.024192893252	1
2	15436	14719.703770733744	0
2	15440	14720.495015689924	1
2	15441	14721.418145280637	0
2	15560	14926.952316750637	1
2	15561	14927.919960623224	0
2	15565	14928.103131303873	1
2	15566	14929.799006355543	0
2	15580	14943.828939604993	1
2	15581	14944.318560006547	0
2	15600	14958.106752546148	1
2	15601	14959.08681477414	0
2	15625	14976.231980081134	1
2	15626	14977.215028551525	0
2	15630	14977.676019647993	1
2	15631	14978.683405874042	0
2	15660	15010.071441623467	1
2	15661	15011.423987487926	0
2	15670	15014.44146306348	1
2	15671	15015.444591062365	0
2	15710	15049.376012565655	1
2	15711	15050.849180124527	0
2	15730	15070.619095426657	1
2	15732	15071.25895038426	2
2	15733	15071.337277806893	1
2	15736	15072.794805861235	0
2	15750	15077.693843743167	1
2	15752	15077.74794261969	2
2	15753	15078.065577077283	1
2	15757	15078.368089190288	2
2	15758	15079.273534708633	1
2	15762	15080.027982402226	2
2	15764	15080.398379402679	3
2	15765	15081.22481166271	2
2	15769	15081.895556048596	3
2	15770	15082.972143469169	2
2	15773	15084.853484074376	1
2	15778	15086.849233222357	0
2	15782	15087.633525952048	1
2	15783	15088.136967896647	0
2	15790	15090.588346115674	1
2	15791	15091.309965871437	0
2	15810	15112.052055467134	1
2	15811	15112.674289219438	0
2	15855	15152.890092754841	1
2	15856	15153.324208904811	0
2	15860	15154.244970261737	1
2	15861	15155.079234623917	0
2	15865	15155.341171156605	1
2	15866	15156.526745370038	0
2	15885	15169.30653584666	1
2	15887	15169.938202819114	2
2	15888	15170.779968471237	1
2	15891	15172.576094326161	0
2	15895	15172.878917717525	1
2	15897	15173.753473398297	2
2	15898	15174.474801738531	1
2	15901	15176.471529806376	0
2	15920	15185.234405217202	1
2	15921	15185.578024675779	0
2	15985	15305.400732818612	1
2	15986	15306.214407029873	0
2	16005	15325.691102320889	1
2	16006	15327.404753375009	0
2	16050	15365.35963575745	1
2	16051	15366.08729312755	0
2	16070	15404.397137815456	1
2	16071	15404.8832114657	0
2	16080	15408.085218775872	1
2	16081	15408.317478998877	0
2	16105	15437.957081528529	1
2	16106	15438.690429229692	0
2	16130	15459.217338724799	1
2	16131	15459.834903076389	0
2	16180	15534.101153321039	1
2	16181	15534.968332125657	0
2	16195	15546.882277767653	1
2	16196	15547.606402664946	0
2	16220	15584.62243138663	1
2	16221	15585.118741525574	0
2	16225	15587.005550847018	1
2	16226	15587.05783342631	0
2	16250	15609.600894300894	1
2	16253	15610.762278650444	0
2	16257	15610.792451145113	1
2	16258	15612.488492338475	0
2	16265	15614.645794129462	1
2	16266	15615.582656396669	0
2	16290	15645.09207560903	1
2	16291	15646.203254725091	0
2	16295	15646.379419721226	1
2	16297	15647.199304477785	2
2	16298	15647.861070179991	1
2	16301	15649.065440422348	0
2	16305	15650.35107695191	1
2	16306	15650.697351387753	0
2	16320	15675.037219089978	1
2	16321	15676.10031786441	0
2	16330	15677.641017447208	1
2	16332	15678.503470943051	2
2	16333	15679.072974681213	1
2	16336	15680.640988240122	0
2	16360	15700.155692927404	1
2	16361	15701.836700312435	0
2	16375	15721.715573640274	1
2	16376	15722.009876251434	0
2	16395	15757.972364062506	1
2	16396	15759.517277823358	0
2	16405	15770.529796453635	1
2	16406	15770.835925021505	0
2	16415	15772.761483100417	1
2	16416	15774.109898362515	0
2	16425	15779.200882825138	1
2	16426	15779.938062509875	0
2	16430	15780.554641741751	1
2	16431	15781.592644799481	0
2	16450	15790.742980484411	1
2	16451	15792.567146114478	0
2	16465	15798.202269327249	1
2	16466	15799.390542704806	0
2	16490	15815.164995796807	1
2	16491	15815.231782084682	0
2	16505	15830.305916493333	1
2	16506	15831.647908079488	0
2	16510	15832.486229049397	1
2	16511	15833.367752110263	0
2	16550	15876.127813277213	1
2	16551	15876.4425846731	0
2	16555	15876.756652427697	1
2	16556	15877.779720538453	0
2	16560	15878.345645117229	1
2	16562	15879.084068204742	2
2	16563	15879.115467576653	1
2	16567	15879.134758430281	2
2	16568	15880.45670358517	1
2	16572	15880.964260986719	2
2	16573	15882.406154726416	1
2	16578	15884.298044880822	0
2	16585	15886.215050730158	1
2	16586	15887.853305704303	0
2	16590	15888.436782067587	1
2	16591	15889.468809414625	0
2	16600	15892.251779607071	1
2	16601	15893.570663399818	0
2	16610	15898.445698368992	1
2	16611	15899.166651893067	0
2	16645	15936.33048990556	1
2	16646	15937.631844483532	0
2	16675	16000.67709833776	1
2	16677	16001.358241912795	2
2	16679	16001.432885740624	3
2	16680	16001.684994069504	2
2	16683	16003.61630782226	1
2	16686	16004.876064917277	0
2	16725	16074.055284157802	1
2	16726	16074.664505551435	0
2	16730	16074.883841143793	1
2	16731	16076.533882688597	0
2	16745	16080.950898533043	1
2	16746	16082.008665565553	0
2	16755	16100.042055173616	1
2	16756	16101.746929322379	0
2	16760	16101.785375475724	1
2	16761	16103.173081348287	0
2	16775	16110.579487799947	1
2	16776	16111.191386835497	0
2	16790	16129.7077381808	1
2	16791	16131.040976766294	0
2	16830	16194.644644734306	1
2	16831	16196.293716072797	0
2	16865	16228.18864610984	1
2	16866	16228.980526529745	0
2	16870	16229.740226630269	1
2	16871	16230.794918230482	0
2	16890	16244.971577068855	1
2	16891	16245.818032502284	0
2	16895	16246.731502011042	1
2	16896	16247.450413943914	0
2	16905	16250.403929578835	1
2	16906	16250.902230918244	0
2	16910	16251.887002792472	1
2	16911	16252.134505269513	0
2	16930	16265.342001293387	1
2	16931	16266.060659735872	0
2	16960	16306.044123993345	1
2	16961	16306.408105617296	0
2	17000	16355.754117253252	1
2	17003	16356.541880085215	0
2	17010	16358.696544306508	1
2	17011	16359.738901692152	0
2	17015	16360.187325350032	1
2	17016	16361.574630987167	0
2	17020	16361.824011341312	1
2	17021	16363.51041139093	0
2	17035	16374.564660980436	1
2	17036	16374.816962780617	0
2	17040	16375.836983363581	1
2	17041	16376.155486121028	0
2	17045	16376.45315014625	1
2	17046	16377.377179848775	0
2	17055	16380.136986626502	1
2	17056	16381.092190120006	0
2	17090	16395.369389997934	1
2	17091	16396.140092889677	0
2	17110	16421.19368325791	1
2	17111	16422.918194095958	0
2	17115	16423.273247418246	1
2	17116	16424.574335179646	0
2	17170	16481.998907474296	1
2	17171	16483.354409219438	0
2	17195	16501.941930475313	1
2	17196	16502.038243279063	0
2	17200	16502.93460923512	1
2	17201	16503.581421676666	0
2	17205	16504.135426850934	1
2	17206	16504.880708569304	0
2	17245	16545.046005254892	1
2	17246	16545.224645195722	0
2	17270	16557.45177637039	1
2	17271	16558.713622790005	0
2	17275	16559.326593842236	1
2	17276	16560.451361794572	0
2	17330	16617.223074919734	1
2	17331	16617.279940831047	0
2	17380	16664.95786003243	1
2	17381	16665.059608393756	0
2	17410	16698.151454189726	1
2	17413	16699.166020705889	0
2	17430	16718.111582667061	1
2	17432	16718.593776291012	2
2	17433	16719.533719738335	1
2	17436	16721.015162425623	0
2	17470	16735.625775768424	1
2	17471	16737.019758021023	0
2	17475	16738.520080450237	1
2	17476	16738.72717515466	0
2	17480	16739.78659672836	1
2	17481	16740.097837792833	0
2	17500	16751.431910005774	1
2	17501	16751.77524619559	0
2	17530	16796.173756668314	1
2	17531	16796.450520424282	0
2	17565	16867.97784892855	1
2	17566	16868.512068267797	0
2	17590	16899.224586801174	1
2	17591	16900.333009042346	0
2	17615	16915.209438979217	1
2	17616	16915.222327359093	0
2	17630	16920.629061101364	1
2	17631	16920.665909479906	0
2	17660	16943.960786940034	1
2	17662	16944.301243542306	2
2	17663	16944.700705797683	1
2	17666	16946.342355542156	0
2	17670	16947.124735043496	1
2	17671	16947.863665998253	0
2	17700	17002.986256521997	1
2	17703	17003.97099365618	0
2	17707	17004.138261414607	1
2	17709	17004.725889655115	2
2	17710	17005.582776577099	1
2	17713	17006.910924746915	0
2	17717	17007.191793028008	1
2	17718	17008.494991681799	0
2	17750	17062.720471146469	1
2	17751	17063.073521288104	0
2	17760	17066.165079460817	1
2	17761	17066.931496586369	0
2	17775	17074.274856732657	1
2	17776	17075.136307800424	0
2	17795	17100.098847864078	1
2	17796	17101.521386963851	0
2	17800	17102.614505213058	1
2	17801	17103.230685811839	0
2	17830	17142.910306444112	1
2	17831	17143.455579835821	0
2	17860	17167.988829013852	1
2	17861	17168.072845710233	0
2	17870	17171.366878990668	1
2	17871	17171.835839547551	0
2	17890	17191.678512663469	1
2	17891	17192.446790395203	0
2	17900	17194.757234858028	1
2	17901	17195.81349232373	0
2	17910	17208.378978125979	1
2	17911	17209.318666214397	0
2	17915	17210.777506094109	1
2	17916	17211.276530947065	0
2	17940	17225.781991518457	1
2	17941	17226.036808382011	0
2	17965	17234.627233386085	1
2	17966	17235.609525341435	0
2	17985	17256.661155453302	1
2	17986	17257.479834819459	0
2	18000	17264.364967052726	1
2	18001	17264.474073972087	0
2	18005	17265.917056668796	1
2	18006	17266.025780771766	0
2	18030	17276.125569387625	1
2	18031	17276.800003356015	0
2	18055	17299.456375051954	1
2	18056	17300.360470457527	0
2	18080	17309.612967688549	1
2	18081	17310.337402834087	0
2	18085	17311.027294877774	1
2	18086	17312.0147420234	0
2	18090	17312.57159269419	1
2	18091	17313.493106910861	0
2	18095	17314.139614181456	1
2	18096	17315.175527726202	0
2	18110	17342.445809863764	1
2	18111	17344.276698059074	0
2	18155	17419.817952825697	1
2	18157	17420.531576080687	2
2	18158	17420.98586825061	1
2	18161	17422.780533725986	0
2	18170	17432.114146756097	1
2	18171	17432.467025754635	0
2	18175	17433.699465246248	1
2	18177	17433.818380413487	2
2	18178	17434.466261765395	1
2	18181	17436.328719927032	0
2	18185	17437.518991062611	1
2	18186	17437.714919872243	0
2	18205	17451.344389480951	1
2	18206	17451.71867987382	0
2	18220	17456.450536355831	1
2	18221	17456.529465971503	0
2	18230	17460.420268582069	1
2	18231	17460.607766191565	0
2	18260	17475.407265830931	1
2	18261	17475.435607361223	0
2	18310	17513.857249174733	1
2	18311	17514.248287080438	0
2	18315	17514.669637618311	1
2	18318	17515.812754714699	0
2	18355	17536.695457506875	1
2	18356	17537.158750797821	0
2	18365	17552.099386021485	1
2	18366	17552.62135025429	0
2	18370	17553.268876391921	1
2	18371	17554.359003911339	0
2	18375	17554.907205553524	1
2	18376	17556.301880402476	0
2	18380	17556.985893033348	1
2	18381	17557.618044383623	0
2	18395	17565.286099376604	1
2	18396	17566.799859215605	0
2	18400	17567.857486975425	1
2	18401	17568.005741893041	0
2	18422	17594.502267502096	1
2	18423	17595.056780990313	0
2	18427	17595.957736035549	1
2	18428	17597.056291088934	0
2	18435	17598.798511041675	1
2	18436	17599.823502277124	0
2	18442	17601.306578639682	1
2	18443	17601.767137130822	0
2	18490	17633.075996746312	1
2	18491	17633.805925048065	0
2	18505	17649.114334390876	1
2	18506	17649.392031646229	0
2	18555	17723.483818772525	1
2	18556	17723.816554955583	0
2	18585	17740.378789041165	1
2	18587	17741.225497750476	2
2	18588	17742.288532634983	1
2	18591	17744.035049357424	0
2	18615	17764.816530556217	1
2	18616	17765.652595080125	0
2	18640	17816.902872651336	1
2	18641	17817.399622754346	0
2	18665	17826.31740079396	1
2	18666	17828.240616602703	0
2	18710	17893.379387410596	1
2	18711	17895.020771050792	0
2	18715	17895.192387528037	1
2	18716	17896.71010122985	0
2	18735	17902.596379889193	1
2	18736	17903.85581519168	0
2	18745	17906.093106960366	1
2	18746	17907.148251748944	0
2	18755	17911.02334763497	1
2	18756	17912.737302467092	0
2	18785	17968.088188563721	1
2	18786	17968.293925119034	0
2	18790	17968.529437706343	1
2	18791	17970.198254633165	0
2	18800	17989.516492736754	1
2	18801	17990.714432722079	0
2	18825	18025.24971822901	1
2	18826	18025.448483747242	0
2	18845	18036.936049799353	1
2	18846	18038.149790769143	0
2	18860	18045.832779771402	1
2	18861	18047.145040426422	0
2	18945	18165.13501671481	1
2	18946	18166.586138707564	0
2	19005	18236.068699875989	1
2	19006	18237.695209685106	0
2	19010	18238.014081471438	1
2	19011	18238.990999155816	0
2	19015	18239.163569091661	1
2	19018	18240.816070724417	0
2	19022	18241.057929931216	1
2	19023	18242.498215726529	0
2	19027	18242.939225753879	1
2	19028	18244.008794359815	0
2	19035	18246.572358430049	1
2	19037	18247.169529813346	2
2	19038	18247.293874488723	1
2	19041	18248.873276982408	0
2	19050	18252.401291488585	1
2	19051	18252.897478647822	0
2	19065	18264.728183200322	1
2	19067	18265.236092932659	2
2	19068	18265.671949552903	1
2	19071	18267.59410324187	0
2	19085	18290.684271471585	1
2	19086	18291.248231975276	0
2	19090	18292.208370743533	1
2	19091	18292.816663254525	0
2	19095	18293.255179106534	1
2	19096	18294.754908051814	0
2	19100	18295.244756161503	1
2	19101	18296.576115074667	0
2	19125	18335.236720765158	1
2	19126	18336.269434671023	0
2	19135	18346.530960620581	1
2	19136	18347.024512269637	0
2	19195	18405.94862135903	1
2	19196	18406.548005586622	0
2	19220	18439.181710146004	1
2	19221	18439.468575874027	0
2	19225	18440.317619217959	1
2	19228	18441.205026061516	0
2	19232	18441.936298000988	1
2	19233	18442.979459781814	0
2	19250	18448.565747540973	1
2	19253	18449.157269304301	0
2	19300	18490.209246956036	1
2	19302	18490.218068379277	2
2	19303	18490.320821088697	1
2	19306	18492.312200847971	0
2	19350	18533.522362111418	1
2	19351	18534.545464046963	0
2	19365	18554.852922898637	1
2	19366	18554.883806653739	0
2	19395	18577.378996384245	1
2	19396	18577.457465997244	0
2	19405	18580.318191187553	1
2	19406	18580.979634755502	0
2	19445	18622.82231092227	1
2	19446	18623.464993933514	0
2	19450	18623.952160984444	1
2	19451	18625.424823585451	0
2	19470	18637.93201346795	1
2	19471	18639.224038654037	0
2	19555	18701.843393292898	1
2	19556	18702.148795479222	0
2	19605	18746.90974301066	1
2	19606	18747.534380187451	0
2	19620	18759.041156132887	1
2	19621	18759.22326191191	0
2	19650	18789.802502592526	1
2	19652	18790.411074334544	2
2	19653	18790.430550942525	1
2	19656	18792.068151668973	0
2	19680	18816.302665921392	1
2	19681	18817.746825116193	0
2	19695	18831.18409692417	1
2	19696	18831.287957813687	0
2	19700	18832.004516785679	1
2	19701	18832.616725303329	0
2	19705	18834.167119283539	1
2	19706	18834.312256961971	0
2	19725	18844.946046940206	1
2	19726	18846.927818432991	0
2	19730	18847.257431105212	1
2	19732	18848.154902297215	2
2	19733	18848.736887882446	1
2	19737	18849.282163814276	2
2	19738	18850.074476713111	1
2	19741	18851.93788734561	0
2	19795	18939.706599128518	1
2	19796	18940.776427566213	0
2	19800	18940.948849881493	1
2	19801	18942.38670092537	0
2	19827	18968.057620527907	1
2	19828	18968.913113851746	0
2	19832	18969.881991762913	1
2	19833	18970.120749088464	0
2	19840	18972.479166607906	1
2	19842	18973.159181750507	2
2	19843	18973.72372311381	1
2	19846	18975.404258956661	0
2	19870	18986.508883340803	1
2	19871	18987.817424355153	0
2	19880	18999.443037716257	1
2	19881	19000.350800726882	0
2	19885	19000.567975500171	1
2	19887	19000.94603364326	2
2	19888	19002.16498360852	1
2	19891	19003.65641849464	0
2	19935	19037.714030936905	1
2	19936	19038.508592977541	0
2	19960	19070.720478210679	1
2	19961	19072.299550481798	0
2	19975	19081.6083648813	1
2	19977	19082.464147046955	2
2	19979	19082.715151583894	3
2	19980	19083.040543135612	2
2	19985	19084.473998919113	1
2	19988	19086.030207831024	0
2	20040	19162.675596671831	1
2	20041	19163.083162072693	0
2	20045	19163.943821053238	1
2	20046	19164.513209585865	0
2	20050	19165.904794586824	1
2	20051	19166.441455339287	0
2	20100	19256.09061056578	1
2	20101	19256.593450004577	0
2	20130	19287.855440504057	1
2	20131	19288.56509490434	0
2	20160	19318.193012530892	1
2	20162	19318.491087894538	2
2	20163	19318.729847152499	1
2	20166	19320.374220787329	0
2	20200	19371.53472896825	1
2	20202	19371.950261394863	2
2	20203	19373.158138675814	1
2	20206	19374.886213207257	0
2	20235	19395.071640235683	1
2	20236	19395.320415048225	0
2	20255	19404.487118154273	1
2	20256	19404.969839455425	0
2	20260	19405.338010671536	1
2	20261	19406.954211240686	0
2	20265	19406.972275907685	1
2	20267	19408.01770796379	2
2	20268	19408.636974340729	1
2	20271	19409.967552016727	0
2	20280	19426.372085583228	1
2	20281	19426.517173908874	0
2	20285	19426.744189508656	1
2	20287	19427.750174450669	2
2	20288	19428.008661871068	1
2	20292	19428.446372189737	2
2	20293	19429.567858660817	1
2	20297	19429.584591198906	2
2	20299	19430.01112250371	3
2	20301	19430.398734891838	4
2	20302	19431.2372399785	3
2	20305	19433.155660808496	2
2	20308	19435.09971677795	1
2	20312	19435.319660554669	2
2	20314	19436.842470262362	3
2	20316	19437.041833433683	4
2	20317	19437.051936906799	3
2	20320	19438.253507978506	2
2	20326	19439.201034303028	3
2	20327	19439.557570911236	2
2	20331	19440.825471990248	3
2	20332	19440.991181782298	2
2	20335	19442.254642948732	1
2	20338	19444.24923622258	0
2	20342	19444.355844776012	1
2	20345	19446.209093336612	0
2	20349	19447.470478455635	1
2	20350	19447.487014651522	0
2	20354	19448.491258240381	1
2	20355	19449.359729937687	0
2	20364	19452.048120402185	1
2	20365	19452.550683597698	0
2	20385	19483.840414152708	1
2	20386	19485.101647202116	0
2	20400	19500.701318841447	1
2	20401	19501.155833287908	0
2	20430	19516.516983791639	1
2	20431	19517.423069930895	0
2	20455	19546.973964656289	1
2	20456	19547.359027025852	0
2	20475	19574.438516160227	1
2	20477	19574.475677481455	2
2	20478	19574.569490308441	1
2	20481	19576.319203327723	0
2	20485	19577.214009553125	1
2	20486	19577.954988244116	0
2	20535	19645.646859642748	1
2	20537	19646.630575130735	2
2	20538	19646.758701152419	1
2	20541	19648.515853713145	0
2	20545	19649.164008109596	1
2	20546	19650.145153107186	0
2	20600	19729.129930223431	1
2	20601	19730.882695746944	0
2	20620	19740.236543681904	1
2	20623	19742.085661159045	0
2	20635	19746.895653853021	1
2	20636	19748.155061898371	0
2	20675	19827.275206859637	1
2	20676	19828.407679320861	0
2	20710	19870.043586169446	1
2	20711	19870.476026329613	0
2	20745	19927.98892359673	1
2	20748	19929.256437396241	0
2	20770	19947.899058132306	1
2	20771	19948.475824656585	0
2	20775	19948.563527691256	1
2	20776	19949.96305788389	0
2	20805	19965.737022420147	1
2	20807	19966.365656824476	2
2	20808	19966.569055022565	1
2	20811	19968.228490311546	0
2	20815	19968.88305813865	1
2	20816	19969.727828708557	0
2	20820	19971.021095210683	1
2	20822	19971.118747832735	2
2	20823	19971.723363637073	1
2	20826	19973.62121100322	0
2	20850	20009.409164507889	1
2	20851	20010.862742298861	0
2	20865	20014.463963033272	1
2	20866	20015.671229427513	0
2	20885	20029.326230157109	1
2	20887	20029.795711444411	2
2	20888	20029.935479950616	1
2	20892	20030.46855535613	2
2	20893	20031.693350333432	1
2	20896	20033.501569627309	0
2	20900	20033.620860754871	1
2	20901	20034.79330116407	0
2	20905	20035.017267172174	1
2	20907	20035.154884436343	2
2	20908	20036.662963361936	1
2	20912	20036.825556118173	2
2	20913	20038.331401611017	1
2	20916	20040.165944917211	0
2	20925	20044.409843897009	1
2	20926	20044.870591499865	0
2	20940	20058.962487065574	1
2	20941	20060.607339059952	0
2	21020	20147.247650406882	1
2	21021	20147.268322158865	0
2	21025	20148.493710682825	1
2	21026	20148.503125227317	0
2	21030	20149.928846912404	1
2	21031	20150.307305546738	0
2	21050	20171.472044042715	1
2	21051	20171.593946664645	0
2	21055	20172.1378245001	1
2	21056	20173.460476536727	0
2	21060	20174.556550082646	1
2	21061	20174.931161492182	0
2	21105	20223.368475089142	1
2	21106	20224.0087542563	0
2	21140	20266.482539057682	1
2	21141	20266.941742132871	0
2	21145	20267.68174021193	1
2	21146	20268.717841637774	0
2	21150	20270.003957432514	1
2	21151	20270.238250644958	0
2	21165	20281.511924825115	1
2	21166	20282.59171110355	0
2	21180	20294.774511522167	1
2	21181	20295.117778631652	0
2	21190	20297.071498745851	1
2	21192	20297.620844874794	2
2	21193	20298.76419440599	1
2	21196	20300.002855869735	0
2	21260	20376.534580637212	1
2	21261	20376.822152422375	0
2	21265	20377.442131328175	1
2	21266	20378.525787651173	0
2	21270	20378.77433971483	1
2	21271	20379.900274670131	0
2	21280	20385.504821775489	1
2	21281	20386.76659197475	0
2	21310	20422.45365442172	1
2	21311	20423.053828736369	0
2	21320	20427.094711794982	1
2	21323	20428.62026005841	0
2	21337	20435.423701949605	1
2	21338	20435.832686865979	0
2	21347	20438.697036202455	1
2	21348	20439.199121051931	0
2	21352	20440.449169702536	1
2	21355	20441.01089988006	0
2	21359	20441.606719666054	1
2	21360	20442.76043152725	0
2	21367	20445.163315347704	1
2	21368	20445.818736201988	0
2	21385	20466.154642985498	1
2	21386	20466.632221922168	0
2	21395	20470.0083767129	1
2	21396	20470.419269979799	0
2	21400	20471.044560912143	1
2	21401	20472.327660074698	0
2	21430	20512.089539524585	1
2	21431	20512.278393999921	0
2	21435	20513.330713184486	1
2	21436	20513.592240998769	0
2	21450	20530.560865590123	1
2	21451	20531.815694961057	0
2	21505	20581.297459453094	1
2	21506	20582.275685155946	0
2	21545	20616.621094171734	1
2	21546	20618.208006199608	0
2	21560	20623.592348971998	1
2	21561	20624.098404352855	0
2	21645	20760.568289833545	1
2	21646	20761.803818011693	0
2	21685	20819.580638051285	1
2	21686	20819.748984404927	0
2	21722	20860.566805435956	1
2	21725	20861.260264659035	0
2	21729	20861.863186822961	1
2	21730	20862.842743434119	0
2	21750	20875.202395536421	1
2	21751	20876.313170623744	0
2	21762	20880.536340541888	1
2	21763	20880.630493606136	0
2	21770	20882.344165816262	1
2	21771	20883.064007905007	0
2	21845	20969.232708049737	1
2	21846	20970.272903582315	0
2	21860	20974.042337091472	1
2	21861	20975.26512239243	0
2	21875	20995.481390853593	1
2	21877	20995.715214267232	2
2	21878	20997.095064733543	1
2	21881	20998.851535441161	0
2	21890	21002.456083225852	1
2	21891	21002.543304158672	0
2	21895	21002.737965392077	1
2	21896	21004.515069851949	0
2	21930	21035.968168986741	1
2	21931	21036.472331345976	0
2	21940	21039.844127273545	1
2	21941	21041.05130830079	0
2	21960	21050.186327578224	1
2	21961	21050.272415001031	0
2	21990	21092.781635525486	1
2	21991	21093.101963495399	0
2	21995	21094.257056185332	1
2	21996	21094.397834414366	0
2	22005	21100.708533967741	1
2	22006	21101.570033598687	0
2	22015	21110.005493387361	1
2	22017	21110.504566854935	2
2	22018	21110.751081214767	1
2	22021	21112.081953997832	0
2	22050	21165.410273010391	1
2	22051	21166.678896123973	0
2	22055	21166.875485379139	1
2	22056	21168.253741632459	0
2	22060	21169.913154937503	1
2	22061	21170.095419916195	0
2	22065	21170.763845639111	1
2	22066	21171.858082498667	0
2	22070	21171.895497527135	1
2	22071	21173.216079136041	0
2	22075	21173.303083173564	1
2	22077	21173.413604420803	2
2	22078	21174.62268974824	1
2	22081	21175.830016283562	0
2	22105	21226.833750554153	1
2	22106	21227.230492217762	0
2	22135	21273.734745477903	1
2	22136	21274.280216926504	0
2	22165	21292.387402856112	1
2	22166	21294.309910771576	0
2	22185	21313.384102966644	1
2	22186	21313.86206324605	0
2	22205	21333.243911339172	1
2	22206	21333.721253412848	0
2	22215	21338.208605787579	1
2	22217	21338.456399814001	2
2	22219	21338.907812403526	3
2	22220	21339.205971055672	2
2	22223	21340.790105296307	1
2	22227	21341.546495420345	2
2	22228	21342.40582856425	1
2	22231	21344.328449619197	0
2	22290	21434.048637567689	1
2	22291	21434.564469175604	0
2	22335	21494.903110971924	1
2	22336	21495.229770838344	0
2	22345	21498.949927366863	1
2	22346	21499.048566174492	0
2	22365	21524.204745812445	1
2	22368	21525.433469899287	0
2	22372	21525.896717926883	1
2	22373	21527.246957997148	0
2	22377	21527.406503352554	1
2	22378	21529.009203588319	0
2	22385	21531.373557090397	1
2	22386	21531.876336982761	0
2	22465	21666.45729112687	1
2	22466	21667.331869267272	0
2	22485	21680.103034732017	1
2	22486	21680.592044774593	0
2	22490	21680.986695166942	1
2	22494	21682.108503904573	2
2	22495	21682.334342546911	1
2	22498	21683.603409471885	0
2	22530	21705.16497441822	1
2	22531	21706.204008266109	0
2	22540	21709.757416998344	1
2	22541	21710.612783799317	0
2	22550	21713.397327412266	1
2	22551	21714.172127922241	0
2	22585	21739.632424552108	1
2	22586	21741.021695193821	0
2	22590	21741.800925235329	1
2	22591	21742.915090690912	0
2	22595	21744.026838528863	1
2	22596	21744.128267011219	0
2	22610	21757.637833976947	1
2	22611	21757.94711496577	0
2	22625	21761.684593176687	1
2	22626	21762.425116164631	0
2	22635	21764.998253156279	1
2	22636	21766.445402529117	0
2	22670	21841.287604870281	1
2	22671	21842.468229018972	0
2	22675	21842.666069628048	1
2	22676	21844.455992476159	0
2	22680	21844.717161162032	1
2	22681	21845.809398178646	0
2	22685	21845.920023156441	1
2	22686	21847.118636284845	0
2	22760	21979.856576007773	1
2	22761	21979.870725936964	0
2	22765	21981.104918984736	1
2	22766	21981.782686337232	0
2	22795	22019.203794083697	1
2	22796	22019.613988216713	0
2	22815	22034.862717585878	1
2	22816	22035.998857892644	0
2	22890	22107.429527397526	1
2	22891	22107.540824697692	0
2	22915	22120.764353467079	1
2	22916	22122.018583328752	0
2	22945	22165.542816294618	1
2	22947	22166.00979508357	2
2	22948	22166.728089989599	1
2	22951	22168.506423232768	0
2	22980	22188.930545142015	1
2	22981	22189.82950193639	0
2	23000	22204.855826933567	1
2	23001	22206.492424124329	0
2	23050	22250.953444632391	1
2	23051	22251.497045020381	0
2	23065	22259.204082902693	1
2	23066	22260.384961805479	0
2	23080	22274.041077993584	1
2	23081	22275.278117293165	0
2	23085	22275.596527215155	1
2	23086	22276.52816384253	0
2	23105	22322.331842078027	1
2	23106	22324.277964297415	0
2	23115	22350.401350840396	1
2	23116	22351.89479341924	0
2	23140	22389.537077707902	1
2	23141	22391.047608232792	0
2	23165	22415.79116472562	1
2	23166	22415.979561865639	0
2	23185	22427.389276137729	1
2	23186	22428.358089682643	0
2	23200	22449.336921932446	1
2	23201	22449.642651586441	0
2	23205	22450.675482613212	1
2	23206	22451.624001562616	0
2	23235	22493.408598320433	1
2	23236	22494.269485420035	0
2	23260	22527.172015384053	1
2	23262	22527.178973790306	2
2	23263	22528.363460189071	1
2	23266	22529.575281879459	0
2	23290	22558.138263070115	1
2	23291	22559.23038303642	0
2	23295	22560.855346295718	1
2	23296	22561.048294214107	0
2	23310	22577.753848619393	1
2	23311	22578.460561778264	0
2	23345	22630.904373912092	1
2	23346	22630.94423855323	0
2	23355	22633.066489671941	1
2	23356	22634.129983915777	0
2	23362	22634.839475677001	1
2	23363	22635.622986530901	0
2	23367	22636.907850456981	1
2	23368	22637.060844487899	0
2	23372	22637.600744755859	1
2	23374	22637.77887561778	2
2	23375	22638.95382513629	1
2	23378	22640.422774396108	0
2	23415	22673.156487496171	1
2	23416	22674.217124834299	0
2	23435	22692.37354809452	1
2	23436	22694.135670601296	0
2	23440	22694.291023979373	1
2	23441	22695.581365469563	0
2	23445	22695.63855607175	1
2	23446	22697.571689403149	0
2	23460	22703.257526275591	1
2	23461	22703.926062383508	0
2	23500	22723.824399904312	1
2	23501	22725.643722757169	0
2	23525	22738.717720849082	1
2	23528	22740.464512864119	0
2	23560	22766.355526669745	1
2	23562	22767.164148193871	2
2	23563	22767.323273284764	1
2	23567	22768.619535554891	2
2	23568	22769.012822894038	1
2	23571	22770.504364932359	0
2	23600	22818.596839383517	1
2	23601	22819.022820642385	0
2	23605	22819.710599515746	1
2	23607	22819.812011501411	2
2	23609	22820.548250439502	3
2	23610	22820.761448572557	2
2	23613	22822.538752262648	1
2	23617	22824.021797882278	2
2	23618	22824.214350683596	1
2	23622	22824.626945327049	2
2	23623	22825.916943277586	1
2	23626	22827.167531887796	0
2	23655	22846.531381776611	1
2	23656	22847.384798442889	0
2	23680	22865.880633337983	1
2	23681	22866.844053274989	0
2	23695	22874.553504476788	1
2	23696	22876.001078499828	0
2	23700	22877.116137428781	1
2	23701	22877.556858942818	0
2	23710	22880.334922115763	1
2	23711	22881.177478426669	0
2	23715	22882.290909251352	1
2	23716	22883.089422091816	0
2	23760	22970.433506727901	1
2	23761	22970.486642200781	0
2	23795	22999.940414016639	1
2	23796	23000.052940944248	0
2	23820	23029.999432195521	1
2	23821	23031.593991307738	0
2	23835	23041.812679732485	1
2	23836	23042.785508133698	0
2	23855	23072.977073498727	1
2	23856	23073.57620995311	0
2	23860	23073.709413352273	1
2	23861	23074.938559806216	0
2	23865	23075.987519595649	1
2	23866	23076.481912978235	0
2	23895	23109.360741205387	1
2	23896	23110.716342591233	0
2	23940	23193.992672165746	1
2	23941	23195.190856993409	0
2	23965	23210.990847917236	1
2	23966	23211.332007802075	0
2	23975	23216.725532960925	1
2	23976	23216.757333976345	0
2	23980	23217.42350118745	1
2	23981	23218.070231435018	0
2	24015	23262.905927190815	1
2	24016	23264.372171592643	0
2	24035	23273.796597312072	1
2	24036	23274.197343601907	0
2	24040	23274.830802023626	1
2	24041	23275.861543041529	0
2	24085	23345.852059667042	1
2	24086	23346.421657618172	0
2	24130	23387.932913862472	1
2	24131	23388.738912727167	0
2	24155	23423.855927196616	1
2	24156	23425.455133255505	0
2	24165	23433.909658598689	1
2	24166	23434.877883670408	0
2	24170	23435.428500345351	1
2	24171	23436.317054365504	0
2	24180	23439.473278703542	1
2	24181	23440.511181961103	0
2	24185	23441.773801556754	1
2	24186	23442.137232630617	0
2	24190	23442.974571745361	1
2	24191	23443.65990439999	0
2	24220	23480.358467410927	1
2	24222	23481.272322160289	2
2	24223	23481.712280434954	1
2	24227	23481.924196181384	2
2	24228	23483.233494877654	1
2	24232	23484.029011919563	2
2	24233	23484.45646212327	1
2	24237	23485.727748087054	2
2	24238	23485.813739077027	1
2	24241	23487.068559564489	0
2	24305	23573.680007877405	1
2	24306	23573.944994134454	0
2	24310	23574.484037826684	1
2	24312	23575.448007857194	2
2	24313	23575.497157271763	1
2	24316	23577.350725888831	0
2	24330	23610.673047386312	1
2	24331	23611.245298826084	0
2	24340	23622.192547124952	1
2	24341	23623.480857333097	0
2	24355	23635.422940434352	1
2	24356	23635.911333633674	0
2	24385	23659.853952448361	1
2	24386	23660.574070204918	0
2	24390	23661.19685926246	1
2	24391	23662.5295046951	0
2	24400	23666.546030622792	1
2	24401	23667.751256127641	0
2	24460	23721.416424492937	1
2	24461	23722.538188032218	0
2	24485	23759.582940484288	1
2	24486	23760.312384096177	0
2	24490	23760.545855737063	1
2	24492	23761.291668975845	2
2	24493	23762.306880474666	1
2	24496	23764.22267714964	0
2	24500	23764.43426122862	1
2	24501	23766.024250877665	0
2	24540	23813.419013778213	1
2	24541	23814.51282783225	0
2	24545	23815.395046176445	1
2	24546	23816.512138431145	0
2	24555	23825.606021909678	1
2	24556	23826.63509222134	0
2	24600	23892.380671091739	1
2	24601	23893.319452587713	0
2	24630	23930.751495680509	1
2	24631	23930.96747892085	0
2	24650	23976.652669096594	1
2	24651	23976.766638183881	0
2	24655	23977.879628038426	1
2	24656	23978.528381871719	0
2	24665	23997.226082628377	1
2	24666	23998.857027689915	0
2	24690	24024.946571673279	1
2	24691	24025.315989812144	0
2	24695	24025.807462289742	1
2	24696	24026.954606233404	0
2	24740	24070.251640835082	1
2	24741	24071.115343292429	0
2	24750	24076.172010337004	1
2	24751	24076.454976978527	0
2	24755	24077.641236610425	1
2	24756	24077.769222819993	0
2	24765	24081.174801851627	1
2	24767	24081.218496096911	2
2	24768	24081.64902615345	1
2	24772	24082.322486551977	2
2	24773	24083.555385495004	1
2	24777	24085.184214137564	2
2	24778	24085.393377455723	1
2	24781	24086.657245551263	0
2	24810	24111.774175527926	1
2	24811	24113.077865378509	0
2	24905	24207.078867266001	1
2	24908	24208.314922072593	0
2	24915	24210.407577911242	1
2	24916	24212.076884611923	0
2	24930	24215.189052065052	1
2	24931	24216.349875588958	0
2	24945	24233.087227624107	1
2	24946	24233.458881698367	0
2	24950	24234.670245578288	1
2	24951	24234.670822480325	0
2	24955	24235.463925181058	1
2	24956	24236.093350480501	0
2	24960	24236.319988095246	1
2	24961	24237.814642162625	0
2	24965	24237.925678180878	1
2	24966	24239.622621141751	0
2	24970	24241.187590571113	1
2	24971	24241.421602209662	0
2	24975	24241.909419967484	1
2	24977	24242.770762603049	2
2	24978	24243.029891416621	1
2	24981	24244.416977470559	0
2	24985	24245.651490823435	1
2	24986	24245.991951345284	0
2	25000	24281.999534007214	1
2	25001	24282.614581241103	0
2	25005	24283.68408108108	1
[...]
6	15409	14704.133689455443	5.091812457952
6	15425	14714.572875580742	23.069892982032
6	15475	14767.614068353893	5.623970326165
6	15480	14769.930636476108	1.788402521797
6	15490	14793.504281234215	1.799751614965
6	15530	14899.907692458748	1.654652456753
6	15540	14908.531375379142	1.802180498951
6	15562	14927.919960623224	2.499768711291
6	15792	15091.309965871437	4.857748549131
6	15857	15153.324208904811	1.463221855462
6	15910	15179.157459511534	1.200414040312
6	16007	15327.404753375009	1.759879839048
6	16045	15360.401200432932	1.912571699731
6	16072	15404.8832114657	1.47567479033
6	16082	15408.317478998877	1.27782566566
6	16095	15416.894047763879	1.542518732915
6	16115	15443.175526144322	1.256726273149
6	16120	15452.18621910297	1.864023981243
6	16150	15497.187457183656	6.985234494369
6	16170	15525.629959626152	1.228315846622
6	16240	15603.858353384532	1.849375117756
6	16245	15605.822340276356	1.594276055694
6	16267	15615.582656396669	5.258175445092
6	16285	15634.754060389474	1.543484142981
6	16334	15679.072974681213	2.071580159701
6	16355	15692.383412805581	1.403352462873
6	16530	15841.719963367858	3.208060513468
6	16587	15887.853305704303	4.058292952911
6	16620	15902.403744084607	2.213380412209
6	16635	15928.654312608804	1.500192480348
6	16705	16041.822772195894	1.909331170283
6	16757	16101.746929322379	1.991264749505
6	16777	16111.191386835497	1.847193261608
6	16785	16113.833820841682	2.469994920366
6	16800	16139.679533756046	1.251118927449
6	16832	16196.293716072797	5.949026727478
6	16860	16220.517986751657	1.693273350224
6	16867	16228.980526529745	1.855000359192
6	16880	16238.531131607825	1.572600027919
6	16920	16259.270343286054	1.568582202308
6	16932	16266.060659735872	3.157433855048
6	16950	16277.497939092209	1.726398249472
6	16962	16306.408105617296	1.696065195464
6	16985	16335.573339379081	1.77833866924
6	17012	16359.738901692152	3.438455658518
6	17065	16384.552114076922	2.565330652278
6	17070	16388.051803089381	1.747765321471
6	17075	16390.35761652968	1.762446118332
6	17105	16404.724475704318	1.651225772128
6	17145	16456.842854098616	1.628665908612
6	17160	16473.822295813932	3.013217682872
6	17172	16483.354409219438	3.524594464007
6	17187	16498.736799611353	1.708424489759
6	17192	16500.078993860834	2.11210896502
6	17215	16508.271445041724	8.739463873385
6	17260	16552.17901157593	3.459033234387
6	17265	16556.357807886954	1.588556026854
6	17272	16558.713622790005	1.465950339846
6	17285	16564.799589430692	1.663623962924
6	17365	16643.53143203038	1.673718933688
6	17382	16665.059608393756	1.502614929527
6	17420	16702.005159659277	3.322172399761
6	17560	16845.743498669606	1.528709343262
6	17592	16900.333009042346	1.718395313434
6	17617	16915.222327359093	2.870006684298
6	17632	16920.665909479906	1.46410651207
6	17650	16935.018704833316	1.815006036125
6	17664	16944.700705797683	1.989065798621
6	17725	17011.292653200663	8.207641726905
6	17792	17099.858463474713	1.675777749904
6	17797	17101.521386963851	1.988645372989
6	17815	17120.137993739672	1.292006256804
6	17840	17146.06423782305	2.557491718674
6	17855	17163.536895895462	1.298583553545
6	17902	17195.81349232373	5.168750827249
6	17925	17214.493779389462	2.912403647813
6	17960	17233.18970301803	2.530882731921
6	17975	17238.903486222855	5.198248057254
6	18045	17290.057004500396	2.038280546752
6	18065	17303.112859253924	1.547460333539
6	18075	17307.976418290395	1.277726078406
6	18207	17451.71867987382	2.30448951705
6	18217	17455.209973751742	2.369154463832
6	18222	17456.529465971503	1.557616704138
6	18245	17467.486302262393	8.650217793082
6	18262	17475.435607361223	3.205406342882
6	18280	17490.9528342486	2.406444869894
6	18300	17503.727486439828	1.756376262382
6	18305	17506.843952597211	1.384543293901
6	18325	17518.837045699195	3.196006261952
6	18352	17535.406705861179	1.496643969975
6	18357	17537.158750797821	2.405948626797
6	18367	17552.62135025429	1.367800945416
6	18452	17605.314628808672	10.932761675786
6	18455	17607.056782764109	4.102725262943
6	18460	17610.670178608953	1.540414488688
6	18472	17616.078780507623	4.227780097451
6	18475	17617.979841669417	3.183443284362
6	18485	17628.904650004189	1.620125741843
6	18525	17674.509645062093	3.965628767061
6	18530	17702.74289507379	1.780113206618
6	18617	17765.652595080125	9.485698986777
6	18642	17817.399622754346	1.76003048569
6	18680	17855.108428560746	1.74959219899
6	18737	17903.85581519168	2.490558552601
6	18747	17907.148251748944	2.301531376307
6	18802	17990.714432722079	1.791403482296
6	18810	17994.465437070775	3.637951600759
6	18862	18047.145040426422	1.408764192648
6	18920	18122.542570840931	1.775322639942
6	18925	18129.654217825838	1.935355430096
6	18960	18190.004617099414	2.957222776587
6	19039	18247.293874488723	6.909022748996
6	19052	18252.897478647822	1.210435891524
6	19069	18265.671949552903	1.708174264245
6	19127	18336.269434671023	1.206068363041
6	19145	18349.625647552228	2.59956204024
6	19150	18366.968942884044	1.23834424261
6	19165	18389.282317464105	1.858264466375
6	19170	18391.390166787604	7.430160662198
6	19197	18406.548005586622	2.351987359616
6	19205	18415.718762668502	1.592745310068
6	19210	18418.935704392071	1.287290808931
6	19254	18449.157269304301	11.919534558007
6	19260	18452.56829024503	7.441848271061
6	19275	18466.737041041799	1.335758150369
6	19325	18511.143021311241	1.722294040397
6	19345	18532.181404452914	3.747069712093
6	19352	18534.545464046963	1.853031112067
6	19375	18557.495203452975	2.10416637473
6	19385	18572.823941662212	1.5022835318
6	19427	18604.252874334889	1.625396952964
6	19430	18606.147188571455	3.450606540871
6	19520	18666.128785989049	1.668109638067
6	19540	18689.703594481928	2.514850609673
6	19557	18702.148795479222	3.189377315448
6	19570	18709.882389658127	1.958458267152
6	19607	18747.534380187451	1.414562595822
6	19615	18750.661575447007	1.703101359545
6	19640	18785.126226775151	1.649964230694
6	19665	18799.886752629412	1.331280773506
6	19675	18812.720065565976	1.859668688849
6	19682	18817.746825116193	1.896370393597
6	19785	18929.555582042788	1.287452754937
6	19797	18940.776427566213	1.745530778915
6	19820	18966.28545383989	1.649004422873
6	19844	18973.72372311381	6.016100910066
6	19872	18987.817424355153	1.659503431618
6	19937	19038.508592977541	1.374156735092
6	19950	19061.23067728033	1.289481274784
6	19962	19072.299550481798	4.966415372592
6	19995	19089.064193335718	4.939417355758
6	20015	19120.124542483769	1.661880457401
6	20080	19207.90607718222	1.521279261075
6	20095	19219.27098051155	2.152094268497
6	20102	19256.593450004577	1.273804990202
6	20120	19271.857739588063	10.432480462933
6	20125	19275.94534674936	1.694150979072
6	20140	19294.811580718358	1.369646626152
6	20145	19298.405057315199	1.602952262945
6	20175	19324.163996280139	2.550069654896
6	20220	19381.332461889275	1.961044640094
6	20366	19452.550683597698	14.201327460534
6	20372	19455.455830563269	9.292155113229
6	20375	19457.070011083818	6.61602424731
6	20410	19505.731378984457	1.51434477102
6	20427	19516.133315451517	1.555708385073
6	20432	19517.423069930895	2.710965590679
6	20440	19525.278570893518	1.61668296475
6	20457	19547.359027025852	1.685748111084
6	20479	19574.569490308441	3.085841371622
6	20510	19593.959364675063	3.273629337028
6	20555	19655.651997858074	1.70110365171
6	20637	19748.155061898371	7.055514279176
6	20655	19775.585406542146	3.863246156791
6	20690	19842.7652380135	1.881135264225
6	20755	19931.734209348617	2.944528363754
6	20772	19948.475824656585	3.767591538775
6	20792	19959.873547943174	1.623413046943
6	20795	19961.166919174097	4.337118913792
6	20809	19966.569055022565	3.213500010225
6	20862	20014.144269785304	6.753273122099
6	20867	20015.671229427513	2.957585559074
6	20880	20027.405454822652	1.594490318932
6	20927	20044.870591499865	1.478774966672
6	20942	20060.607339059952	1.817025737092
6	20960	20076.193485063076	1.866965518147
6	20990	20125.251497496465	1.84577922296
6	21012	20138.814912390563	2.365036579037
6	21015	20140.162194268632	2.134032246809
6	21022	20147.268322158865	1.740076286346
6	21075	20184.284473764404	1.300125961564
6	21090	20193.929876306937	15.009273347719
6	21130	20248.088777475847	11.155863046308
6	21135	20261.950237434045	1.52680411581
6	21194	20298.76419440599	2.810488209063
6	21255	20362.359474132863	1.847618599981
6	21290	20389.533936694108	4.206365404837
6	21312	20423.053828736369	1.648840105534
6	21330	20431.134383791938	3.775889756152
6	21369	20445.818736201988	11.405115880259
6	21375	20448.630599876025	14.214868467459
6	21415	20492.199751875121	1.372749237157
6	21475	20558.518555555524	6.5404242182
6	21507	20582.275685155946	1.518459583074
6	21515	20589.876593761345	1.417672622018
6	21547	20618.208006199608	1.975422478281
6	21580	20647.616377775354	1.799204193056
6	21605	20688.542664418076	2.622094989368
6	21647	20761.803818011693	2.677859727566
6	21665	20786.900914187994	1.827700605057
6	21675	20799.684959282527	1.409153846838
6	21700	20837.807701072239	1.605651030503
6	21705	20840.387857972493	1.513360995427
6	21726	20861.260264659035	1.339032602869
6	21737	20865.55182425018	5.144740316613
6	21740	20867.523729394857	6.908941661677
6	21772	20883.064007905007	8.146954764715
6	21840	20967.214317859738	1.744095932692
6	21855	20973.327112709779	4.672603891418
6	21879	20997.095064733543	1.66573526822
6	21892	21002.543304158672	1.568720975891
6	21910	21017.290225868221	1.648157241568
6	21920	21024.763230944509	2.275070767142
6	21925	21033.315162408778	1.409571295977
6	21992	21093.101963495399	1.797726763785
6	22125	21260.751923416094	1.770498937555
6	22152	21280.332109931498	2.545507586722
6	22155	21281.571158032878	4.608643181622
6	22175	21301.29235013462	1.207868756168
6	22202	21332.447804271502	1.871359655075
6	22207	21333.721253412848	1.878120723999
6	22255	21366.226011925711	1.339158761501
6	22260	21367.931753179679	1.489596655592
6	22270	21396.578963908056	1.912831795029
6	22285	21432.739423957368	1.84826181978
6	22305	21460.530597702283	1.281992965378
6	22387	21531.876336982761	7.261092049928
6	22420	21566.793109855769	3.54733514899
6	22480	21675.341047873502	2.14373427305
6	22487	21680.592044774593	1.688197641633
6	22505	21686.666132859104	4.8282031432
6	22620	21760.475068681952	2.309252679087
6	22627	21762.425116164631	1.231736099347
6	22710	21870.473856837798	1.645435773768
6	22835	22048.7323876441	5.858980205178
6	22860	22082.941309792719	8.11287710133
6	22875	22094.251221574965	3.020125056682
6	22930	22145.879580656684	1.619919755124
6	22949	22166.728089989599	1.542010157742
6	22965	22177.80845990532	2.297122737207
6	22982	22189.82950193639	1.74556173142
6	23025	22224.449261969869	9.33649035598
6	23067	22260.384961805479	1.476470110565
6	23100	22319.025569287327	1.764502722211
6	23117	22351.89479341924	1.811348506249
6	23225	22475.643385443603	1.511706044897
6	23230	22484.561831436066	1.706780489348
6	23292	22559.23038303642	1.252131957933
6	23385	22643.474140186438	8.985990057403
6	23472	22706.752259692369	6.85603487814
6	23475	22708.63524116837	3.283754478866
6	23502	22725.643722757169	2.079459852579
6	23535	22743.178365826226	4.448627910128
6	23590	22813.385115584397	1.619304694049
6	23595	22816.484842945026	1.314204662666
6	23635	22830.488952846434	3.00830363237
6	23712	22881.177478426669	3.090729796828
6	23725	22896.861801649005	1.885936994106
6	23775	22978.255514892393	2.326558668205
6	23797	23000.052940944248	1.892980538495
6	23815	23027.385354137991	11.08894012207
6	23880	23096.545859800159	1.409937817231
6	23925	23140.705672915249	4.450577203029
6	23930	23169.67725020013	1.890374393947
6	23950	23198.824582580058	1.482471461594
6	24005	23242.364760399224	1.272865848243
6	24025	23267.895833809399	1.944619498402
6	24065	23324.247766948574	1.548384942673
6	24080	23341.322081701895	1.853105498031
6	24132	23388.738912727167	2.439965279998
6	24140	23391.975011984487	2.661931731241
6	24205	23452.168422943918	12.983093727096
6	24210	23462.193356925827	1.572730057128
6	24275	23521.295380825012	1.529696992598
6	24332	23611.245298826084	2.125973119804
6	24365	23639.683573968609	2.88166450043
6	24415	23677.002158651203	2.717223724643
6	24525	23798.131712124262	1.339762576856
6	24535	23810.921307180729	3.829598939328
6	24565	23831.953943657182	1.888445899636
6	24570	23848.474046437611	1.685435750522
6	24625	23927.646193962131	3.860173905496
6	24667	23998.857027689915	1.828965916671
6	24720	24056.857078832621	1.620902412571
6	24812	24113.077865378509	2.763114733969
6	24850	24143.610945106464	3.89888058254
6	24870	24171.223343813355	8.24761704402
6	24925	24214.827000034455	2.310211184612
6	24940	24224.507001033242	16.253527800167
6	24947	24233.458881698367	1.72295393981
6	24995	24269.828950608399	1.976783525012
6	25040	24325.702631977561	1.969948835485
6	25072	24364.487895907565	1.949625885487
6	25100	24381.626882440269	1.711507330462
6	25115	24389.370216141221	2.418195417414
6	25120	24392.44355877648	6.609906664267
6	25125	24397.055072025247	1.241695603542
6	25160	24430.13009138931	1.679100309126
6	25174	24455.444259069842	1.602581631206
6	25180	24459.166645189729	5.235134524739
6	25215	24485.29425046504	13.96742543417
6	25235	24513.221279273589	1.829408838786
6	25240	24515.878616099081	1.308072894812
6	25247	24523.565826124418	1.991945758462
6	25272	24538.159303176138	4.205654025731
6	25315	24597.794923855979	10.153951718955
6	25335	24614.637792697581	1.211636336334
6	25380	24634.001954825876	9.085413467128
6	25415	24659.68888993822	6.432342385329
6	25445	24684.525323486935	4.125817967968
6	25460	24695.290032563852	1.749053007737
6	25477	24702.821546550382	5.071639738552
6	25485	24707.766469753356	1.52891152706
6	25540	24757.948032221868	1.52381904237
6	25567	24784.467858262676	2.19768674081
6	25605	24801.752075492242	7.479858753831
6	25645	24818.376820499036	1.547878865572
6	25670	24827.528766229624	1.270137675665
6	25720	24887.688008833936	1.467704992183
6	25730	24891.816257465887	2.699019359743
6	25752	24919.708651511589	1.88228618335
6	25757	24920.964829435976	3.05337225128
6	25790	24955.960443077128	5.150897900181
6	25820	25014.840002398456	1.510762882605
6	25835	25032.272033724751	1.387801760249
6	25885	25072.430657644785	2.450150710097
6	25895	25095.664012521949	4.441461380963
6	25935	25150.568140477922	15.255393292586
6	26025	25228.291049838267	13.29078512378
6	26045	25252.762057760303	6.209052892371
6	26095	25305.470900433426	3.10441077648
6	26110	25318.893990816163	5.721531508232
6	26167	25352.987859112973	1.405687242933
6	26187	25361.148439545787	1.422238877602
6	26192	25362.479625107951	1.544383371071
6	26205	25372.809049884977	10.365342909814
6	26212	25393.883594661666	1.202502554283
6	26220	25396.352463946952	1.612219049867
6	26230	25437.210215600997	1.84153318014
6	26242	25442.727677938248	3.353432617891
6	26465	25681.769547051155	1.784801560827
6	26475	25698.371558549068	1.616095437668
6	26480	25702.563584347405	8.276045243692
6	26495	25718.803397434657	1.882453115098
6	26500	25722.177467600506	1.58757391721
6	26550	25756.972521142691	1.382285405137
6	26560	25778.305278469786	1.563961884379
6	26580	25798.349139309778	4.056493077979
6	26687	25868.249413291995	1.953935999982
6	26845	25961.926603797555	1.957324658707
6	26887	26035.595024366083	1.642158302851
6	26900	26043.741084604467	2.555327804327
6	26935	26080.065017527152	1.531225125305
6	26960	26114.200295127681	1.273598639295
6	26970	26130.973644762179	1.907220171578
6	26977	26142.778374868701	1.749241586402
6	27005	26201.27288590245	1.574973005801
6	27080	26263.495076901511	1.448209990934
6	27189	26326.891878037359	2.025130116327
6	27195	26330.163093687053	3.612687298028
6	27320	26443.45005242815	3.709949446883
6	27335	26467.104392640553	1.918593470939
6	27384	26495.629630576612	6.912154047725
6	27415	26515.656169685797	1.758658946119
6	27430	26541.631824931684	1.753785261139
6	27592	26692.804328912458	7.238686592896
6	27622	26711.631374058127	7.061120675132
6	27647	26718.803948697633	5.036598823834
6	27685	26736.137180022962	1.934414592944
6	27710	26769.353378184197	1.988892430626
6	27730	26785.922420869146	1.805226989649
6	27785	26833.954842743154	1.906308857925
6	27802	26851.633910273743	1.854425317422
6	27822	26860.431364291606	1.994796425529
6	27872	26890.783982809519	4.163634231844
6	27902	26920.251191551492	7.996822897481
6	27952	26964.957992518857	1.585748114623
6	27997	27030.243489062056	4.322049116477
6	28035	27055.411535676547	5.748727770522
6	28040	27057.600245161702	7.920834891324
6	28122	27197.921611572717	1.424382208288
6	28127	27199.252022743326	2.083710544022
6	28242	27311.376070537848	2.163536380453
6	28260	27321.683327067031	2.017161187929
6	28280	27336.458168601606	1.694083230011
6	28360	27400.513179089094	1.599674985372
6	28365	27411.504690748635	1.243886468746
6	28397	27441.509330286244	1.898387319781
6	28457	27515.596883275934	1.241469192691
6	28490	27563.573918849748	1.707552066073
6	28500	27605.84508890933	1.474185543135
6	28550	27693.345264699041	1.342481325567
6	28642	27803.579166302983	2.409689487121
6	28649	27805.163411453892	5.737877506208
6	28655	27807.95008602139	2.985739264927
6	28740	27866.607267905509	1.573806642555
6	28745	27878.467992649269	1.316582825407
6	28775	27909.583309294688	2.333347935495
6	28785	27941.67794287877	1.704064568318
6	28812	27957.054031211701	4.064423896282
6	28815	27958.502455280539	5.178100866263
6	28822	27960.1531731336	1.38586001955
6	28834	27981.689434574767	1.32348230686
6	28845	27987.040058054811	6.354902952209
6	28860	28000.888521713848	5.785396277434
6	28887	28022.57247962346	3.46170061551
6	28947	28061.496527930164	1.942809872143
6	28955	28084.48533357806	1.933012086712
6	28980	28099.224380705959	8.723296997917
6	29010	28132.146731859628	4.388117988733
6	29015	28136.028607643544	1.817817547172
6	29067	28183.640878501658	4.523796078712
6	29072	28185.494411190536	4.686770430361
6	29075	28187.163407178532	3.219140449458
6	29087	28211.127418878131	1.832669180445
6	29122	28252.457618499491	5.760077410693
6	29135	28270.083396730105	1.6178039046
6	29180	28304.205313370341	1.375145294145
6	29195	28315.273746061963	5.706877915194
6	29275	28402.977382169554	1.701510012106
6	29290	28417.916259593197	2.41724796274
6	29307	28427.524596737793	7.579145300538
6	29327	28472.597719700704	2.651761383204
6	29375	28530.4062437592	1.458389252238
6	29385	28535.19638617978	4.132496335599
6	29400	28560.554576998604	1.354697208293
6	29420	28600.108769891209	1.3651252212
6	29425	28602.785519493754	1.395722577907
6	29492	28685.854177104608	5.332483898429
6	29495	28687.078550739326	2.975331567064
6	29569	28714.700633689333	12.003301978788
6	29582	28719.986428117511	5.163659976381
6	29602	28747.081653269609	3.812016618827
6	29640	28791.545655129499	1.546239230596
6	29650	28805.831723661805	4.163407147801
6	29692	28857.821087531635	3.267266135294
6	29697	28859.665987631382	8.062805758662
6	29730	28884.973947820025	1.940518579632
6	29735	28907.062948235727	1.671490794607
6	29795	28980.522970942287	1.237271625549
6	29850	29020.905299425156	4.160731179013
6	29855	29035.227849041821	1.397359503619
6	29930	29130.647735715269	3.746816646504
6	29986	29178.725518662983	6.399198927058
6	29992	29181.805273871996	8.157275805885
6	29995	29183.107546808139	4.682687968317
6	30075	29251.468920344895	1.547821323201
6	30080	29257.430473169203	1.71247228682
6	30105	29272.490046382921	1.437295293994
6	30132	29304.623460716265	1.545844105445
6	30205	29408.119281950604	1.653000827635
6	30210	29446.095547471191	1.772321278043
6	30279	29492.994067311165	8.264453336208
6	30310	29518.257619666534	1.413400768489
6	30367	29575.133934997242	6.987641189805
6	30430	29636.887275502203	4.283540581311
6	30439	29641.167773086467	1.777481883392
6	30455	29670.424000250908	1.384175226092
6	30520	29759.856316314074	1.526578176767
6	30535	29766.512932193339	3.13814317032
6	30540	29773.513197928117	1.781923855655
6	30550	29795.111162292624	1.388616664149
6	30565	29821.518092956527	1.511558079906
6	30645	29867.80730710129	5.078479060968
6	30672	29882.650633943282	1.965443858691
6	30697	29936.468549041669	1.410173942707
6	30745	29986.117961032978	1.725191636011

