version 2
run Third_exit_8-15-20191017-13:44:28-2050
attr configname Third_exit_8
attr datetime 20191017-13:44:28
attr experiment Third_exit_8
attr inifile omnetpp.ini
attr iterationvars ""
attr iterationvarsf ""
attr measurement ""
attr network ResponseTimeNetwork
attr processid 2050
attr repetition 15
attr replication #15
attr resultdir results
attr runnumber 15
attr seedset 15
param **.Source.interArrivalTime exponential(6s)
param **.jobPriority bernoulli(0.8)
param **.PS.serviceTimeU1 "uniform(1.2s, 2.0s)"
param **.PS.serviceTimeU2 "uniform(2.4s, 2.8s)"
param **.SS1.serviceTime exponential(1.4s)
param **.SS2.serviceTime exponential(2s)
param **.PS.exitProbability bernoulli(0.8)

vector 0 ResponseTimeNetwork.SS1 queueLength:vector ETV
attr interpolationmode sample-hold
attr title "queue length, vector"
vector 1 ResponseTimeNetwork.SS2 queueLength:vector ETV
attr interpolationmode sample-hold
attr title "queue length, vector"
vector 2 ResponseTimeNetwork.QueueU1 queueLength:vector ETV
attr interpolationmode sample-hold
attr title "queue length, vector"
vector 3 ResponseTimeNetwork.QueueU2 queueLength:vector ETV
attr interpolationmode sample-hold
attr title "queue length, vector"
vector 4 ResponseTimeNetwork.sink lifeTimeU1:vector ETV
attr interpolationmode none
attr title "lifetime of arrived jobs U1, vector"
attr unit s
vector 5 ResponseTimeNetwork.sink lifeTime:vector ETV
attr interpolationmode none
attr title "lifetime of arrived jobs, vector"
attr unit s
vector 6 ResponseTimeNetwork.sink lifeTimeU2:vector ETV
attr interpolationmode none
attr title "lifetime of arrived jobs U2, vector"
attr unit s
2	0	0	0
2	25	25.456660273302	1
2	26	26.522826002382	0
2	50	44.683796443906	1
2	51	44.823080981934	0
2	55	45.135885937051	1
2	56	46.314012320006	0
2	75	53.717203182461	1
2	76	54.911844380309	0
2	80	55.787772129761	1
2	81	56.388800357205	0
2	85	57.036394818283	1
2	86	58.019479363148	0
2	90	58.51682302675	1
2	91	59.499891667922	0
2	95	60.759297173043	1
2	96	61.232393694219	0
2	125	81.933971185965	1
2	127	83.279714124362	2
2	128	83.48663003773	1
2	133	85.086223972706	0
2	137	85.285436429137	1
2	138	86.912217313355	0
2	142	87.329449779101	1
2	143	88.623808859406	0
2	147	89.450631021498	1
2	148	89.865641847743	0
2	152	90.417723987631	1
2	153	91.337642818621	0
2	157	92.81849366513	1
2	158	93.084879786453	0
2	162	93.373899218318	1
2	163	94.901708676412	0
2	172	97.098663897945	1
2	174	97.132536580435	2
2	175	98.081462599642	1
2	179	98.435632941259	2
2	183	99.052687595095	3
2	184	99.529277023047	2
2	187	101.145674204573	1
2	190	102.89332943701	0
2	194	102.913299884006	1
2	196	103.181922301406	2
2	197	104.433561672762	1
2	201	104.476938090958	2
2	203	105.600600815877	3
2	204	106.292640958473	2
2	208	106.84867518051	3
2	210	106.853884034836	4
2	211	108.20299712152	3
2	215	108.361155282065	4
2	216	109.893288341842	3
2	220	110.676680760792	4
2	221	111.827641460232	3
2	225	111.981442264869	4
2	226	113.203451093219	3
2	230	114.313767841542	4
2	231	114.88731764362	3
2	234	116.64503777039	2
2	237	118.031548681415	1
2	241	118.256256105924	2
2	242	119.474471675164	1
2	246	119.964441198223	2
2	247	121.426155305958	1
2	251	121.646684453004	2
2	252	123.220891008085	1
2	256	123.781591339433	2
2	257	124.718877681835	1
2	261	126.20917232296	2
2	262	126.331417966379	1
2	265	127.908769480629	0
2	272	129.863955105414	1
2	274	129.968165616687	2
2	277	130.867184648222	1
2	283	131.598448150442	2
2	284	132.526185997321	1
2	288	133.924030210176	2
2	289	134.430484705164	1
2	294	135.967427151582	0
2	298	136.027025404528	1
2	299	137.458059787868	0
2	306	140.368189518894	1
2	307	140.533591351589	0
2	311	140.677867855639	1
2	313	142.325468531641	2
2	314	142.482601317508	1
2	317	143.794024288585	0
2	321	144.063884445275	1
2	323	144.189416373651	2
2	324	145.536724067783	1
2	329	146.743959576754	0
2	333	147.00941226647	1
2	335	147.557777285605	2
2	336	148.563775768062	1
2	340	148.821415122194	2
2	341	150.177691081097	1
2	344	151.378565181909	0
2	348	151.71191340789	1
2	349	152.77749657475	0
2	359	155.671347194828	1
2	360	156.936977372808	0
2	364	158.390661365271	1
2	365	158.608981743013	0
2	371	159.470106341878	1
2	372	159.82866554067	0
2	376	161.336739363159	1
2	377	161.575082620163	0
2	381	161.598973133415	1
2	382	162.852051657927	0
2	386	163.045665384459	1
2	389	164.559676427883	0
2	393	164.576713373536	1
2	394	166.555448512104	0
2	398	167.348823738571	1
2	400	167.471521877109	2
2	401	168.443394629773	1
2	404	169.785339861851	0
2	408	170.030388538488	1
2	409	171.072729493979	0
2	413	171.794820873362	1
2	414	172.564745321426	0
2	418	172.881346551222	1
2	420	174.116900501742	2
2	421	174.27803088792	1
2	425	174.396764618001	2
2	427	174.400294237448	3
2	428	175.570341570232	2
2	432	176.465370471589	3
2	433	176.790722354244	2
2	437	177.105861612427	3
2	438	178.640333306904	2
2	442	178.735925358608	3
2	443	180.411306222643	2
2	446	182.110171863365	1
2	449	183.70472189125	0
2	456	186.412242186792	1
2	458	187.024672946646	2
2	459	187.407129619199	1
2	465	189.030102972767	2
2	466	189.171998286921	1
2	469	190.813933741789	0
2	476	192.847225310496	1
2	477	194.285809009079	0
2	481	194.900042530766	1
2	482	195.514710649405	0
2	489	197.749740795383	1
2	490	198.875122357089	0
2	500	201.66988681132	1
2	501	203.623540381085	0
2	517	207.336314281257	1
2	518	207.820654492167	0
2	524	208.183014522611	1
2	525	209.433523220469	0
2	529	209.900832074048	1
2	530	210.700608732265	0
2	534	211.621127512995	1
2	535	212.562858597462	0
2	545	215.8575415438	1
2	546	217.182032219034	0
2	555	220.786272631618	1
2	556	221.705455731309	0
2	565	224.984195479289	1
2	568	226.571659493284	0
2	572	226.863978589294	1
2	574	227.064175068344	2
2	575	227.780687911832	1
2	579	228.037964749141	2
2	580	229.406939818734	1
2	584	230.360170188227	2
2	585	230.994309519069	1
2	589	231.215412830396	2
2	590	232.57421510222	1
2	594	233.916126793526	2
2	595	234.070098414483	1
2	599	234.311773314227	2
2	601	234.809000105654	3
2	602	235.482819762106	2
2	605	237.420562766704	1
2	609	238.505523036832	2
2	611	239.000803599977	3
2	612	239.235921159039	2
2	616	240.340448036661	3
2	618	240.352642279662	4
2	619	240.650532562497	3
2	622	241.856397772419	2
2	625	243.855139603863	1
2	629	245.026327288043	2
2	630	245.350790372702	1
2	633	246.941099675956	0
2	637	247.603570110727	1
2	639	248.769760012073	2
2	640	248.84878292049	1
2	644	249.707140911181	2
2	645	250.44439136258	1
2	649	251.527782683175	2
2	651	251.95347565728	3
2	653	252.255370128537	4
2	654	252.42139886974	3
2	658	253.271620472696	4
2	659	254.114001818212	3
2	662	255.741361369217	2
2	665	257.503840470152	1
2	669	257.54899034061	2
2	671	258.793427097078	3
2	672	258.867996431539	2
2	676	260.397270369782	3
2	677	260.401575105475	2
2	681	260.43863473208	3
2	682	262.290082423972	2
2	685	263.825905038999	1
2	689	264.461444534271	2
2	690	265.041939158016	1
2	693	266.443011836917	0
2	697	266.582904430699	1
2	699	266.940385154143	2
2	701	267.237138892615	3
2	702	267.746293448121	2
2	706	267.960295101531	3
2	709	269.061837646761	2
2	713	269.084328337386	3
2	715	269.864384940224	4
2	716	270.99560871555	3
2	719	272.497138535441	2
2	722	274.464005244919	1
2	725	275.990733867162	0
2	729	276.729819024827	1
2	732	277.784772728407	0
2	736	278.396659827656	1
2	738	278.826149299742	2
2	739	279.684185884358	1
2	743	280.082770820252	2
2	744	281.476345555881	1
2	747	283.234657334933	0
2	754	285.989031263442	1
2	755	287.165368279467	0
2	759	287.342988543188	1
2	760	288.371101563635	0
2	766	289.125847574059	1
2	768	289.677642479506	2
2	769	290.311484468567	1
2	772	291.577551695916	0
2	776	291.654571312547	1
2	777	292.975912722225	0
2	784	294.824367878985	1
2	785	296.073174259091	0
2	802	301.388772571138	1
2	803	301.829485471571	0
2	809	303.418064031973	1
2	810	303.753565539258	0
2	824	308.910508165789	1
2	825	309.01718774757	0
2	834	311.555388953478	1
2	835	312.367235250795	0
2	847	316.550488918191	1
2	849	316.823394109315	2
2	850	317.950027014153	1
2	854	319.543124195129	2
2	855	319.633031170653	1
2	859	319.982543194302	2
2	862	321.495379105793	1
2	866	321.698558036939	2
2	867	323.00783040321	1
2	871	323.396449725994	2
2	873	323.837029554812	3
2	875	324.232614140725	4
2	876	324.242035878846	3
2	880	325.498121872805	4
2	881	326.122234175378	3
2	884	327.383955350915	2
2	888	327.533075878876	3
2	889	329.332037649142	2
2	893	329.371517123819	3
2	895	330.234564954431	4
2	896	331.039218758816	3
2	900	332.377050884027	4
2	901	333.008593127715	3
2	905	333.354860922312	4
2	906	334.799229024003	3
2	910	335.099532863147	4
2	913	336.616805051665	3
2	916	337.990073390144	2
2	919	339.697415377597	1
2	922	341.278015575583	0
2	926	341.568139845246	1
2	927	343.036163842331	0
2	931	343.382252153259	1
2	933	343.485644114639	2
2	935	344.633041528097	3
2	936	344.662318792592	2
2	940	345.011768542939	3
2	941	346.451237514268	2
2	944	347.859463797535	1
2	948	348.116484041583	2
2	949	349.832132367256	1
2	952	351.063782219428	0
2	956	351.108386476974	1
2	957	352.510896763976	0
2	961	352.875726745026	1
2	962	353.898362032163	0
2	969	355.992152605809	1
2	970	356.692189398247	0
2	976	357.789362109581	1
2	978	357.842003950351	2
2	979	358.187095659065	1
2	983	358.876750462784	2
2	984	360.142058811176	1
2	988	360.842809817089	2
2	989	361.543506651397	1
2	992	363.312190000179	0
2	998	364.694641021398	1
2	999	365.069007188107	0
2	1003	365.416227362518	1
2	1004	366.859466996442	0
2	1008	367.85858603603	1
2	1010	368.386922514207	2
2	1011	368.76689609776	1
2	1015	369.707790636793	2
2	1017	369.844528520945	3
2	1018	370.059436754722	2
2	1021	371.445359624203	1
2	1029	372.02552297492	2
2	1031	372.231914887423	3
2	1032	373.135195002358	2
2	1035	375.066273533765	1
2	1039	376.446364731689	2
2	1040	376.884168398034	1
2	1044	377.659809640668	2
2	1045	378.676494412523	1
2	1049	379.385491128575	2
2	1051	379.782753370168	3
2	1052	380.094456943151	2
2	1056	381.27677334642	3
2	1058	381.398087065063	4
2	1059	381.681827482794	3
2	1063	382.688851389879	4
2	1064	383.391931976218	3
2	1068	383.753122890047	4
2	1069	384.721902290758	3
2	1073	384.805073366625	4
2	1074	386.562101611521	3
2	1077	388.319165064979	2
2	1080	389.744319141682	1
2	1084	390.930031713109	2
2	1085	391.568354966517	1
2	1089	392.58638444649	2
2	1090	392.969226657625	1
2	1094	393.504916959996	2
2	1095	394.281288616385	1
2	1099	394.324187470992	2
2	1101	394.873581935917	3
2	1102	396.057972067993	2
2	1105	397.318224170271	1
2	1109	397.740685974406	2
2	1111	398.540141799911	3
2	1112	399.171679702613	2
2	1117	401.140068609852	1
2	1120	402.569435393836	0
2	1124	403.487762424174	1
2	1125	404.542494058635	0
2	1132	407.259826733317	1
2	1133	407.870944288772	0
2	1140	410.637783419678	1
2	1141	410.855402117063	0
2	1145	411.780827331088	1
2	1146	412.684712483761	0
2	1150	413.736861433348	1
2	1151	414.090033005391	0
2	1160	415.854641669944	1
2	1163	416.841676318486	0
2	1167	417.411644385867	1
2	1168	418.631325165209	0
2	1177	421.27093206858	1
2	1178	421.402933877919	0
2	1182	422.289708299285	1
2	1183	422.799132514771	0
2	1187	423.776286839658	1
2	1189	424.043697167538	2
2	1191	424.302919400329	3
2	1192	424.614283142079	2
2	1196	426.198577973992	3
2	1197	426.592071073156	2
2	1201	426.851617978281	3
2	1203	426.991799607528	4
2	1204	428.052572165083	3
2	1207	429.81279726534	2
2	1211	431.447694758012	3
2	1212	431.49968627489	2
2	1216	431.689526036411	3
2	1217	433.241199749734	2
2	1221	433.389949511338	3
2	1222	435.216624294433	2
2	1225	436.451036991204	1
2	1229	436.915271644573	2
2	1231	437.464136842729	3
2	1233	437.574898039052	4
2	1234	438.11263289212	3
2	1238	438.865402702444	4
2	1239	439.550178136143	3
2	1243	439.793344915423	4
2	1245	439.96081586027	5
2	1247	440.147728331223	6
2	1248	440.772514645408	5
2	1252	440.843794818157	6
2	1253	442.157932066011	5
2	1257	442.492572977274	6
2	1258	443.982489064547	5
2	1262	444.144306214016	6
2	1263	445.742158264692	5
2	1266	447.45362293313	4
2	1269	448.860892999198	3
2	1273	448.865321838243	4
2	1275	450.693341674648	5
2	1276	450.713209616977	4
2	1280	452.510481819686	5
2	1281	452.666430537987	4
2	1284	454.140244475405	3
2	1288	455.33796677459	4
2	1292	455.863817326164	5
2	1293	455.979001546863	4
2	1296	457.437614150185	3
2	1300	458.666954295793	4
2	1301	458.997750117469	3
2	1305	459.348863111675	4
2	1307	460.114049925006	5
2	1308	460.415933041114	4
2	1314	462.001769275212	5
2	1315	462.362472549479	4
2	1319	463.085381654528	5
2	1321	463.181539576285	6
2	1323	463.73445452047	7
2	1324	463.981622992482	6
2	1328	464.617319567602	7
2	1329	465.829205670048	6
2	1332	467.537789183137	5
2	1336	467.643248621506	6
2	1337	469.448535188314	5
2	1340	471.060868335169	4
2	1344	471.64675607334	5
2	1345	472.512872314852	4
2	1348	474.287120346751	3
2	1351	475.898270666998	2
2	1355	477.055284188337	3
2	1357	477.160416595969	4
2	1358	477.413407755111	3
2	1362	477.662227541755	4
2	1363	478.936011696075	3
2	1367	479.646609584423	4
2	1368	480.381217702878	3
2	1372	481.519078948304	4
2	1373	482.279021588926	3
2	1376	484.233080942211	2
2	1380	484.667513850438	3
2	1381	485.761000801464	2
2	1385	486.539003085082	3
2	1386	486.996109077921	2
2	1390	487.173386593828	3
2	1392	487.886455277424	4
2	1394	488.053963002178	5
2	1395	488.834536059601	4
2	1399	489.687132682646	5
2	1400	490.824423029301	4
2	1404	491.059631516439	5
2	1405	492.55342122673	4
2	1409	492.590253417059	5
2	1411	493.982459967679	6
2	1412	494.207344506336	5
2	1416	494.409133983086	6
2	1418	495.804840335333	7
2	1419	496.179634610964	6
2	1423	497.868395396755	7
2	1424	498.073338636411	6
2	1428	499.926772665427	7
2	1429	500.0609892797	6
2	1432	501.804479357255	5
2	1436	502.170092081211	6
2	1437	503.581022788612	5
2	1440	504.821163784182	4
2	1443	506.300041956296	3
2	1446	508.205243285587	2
2	1450	509.078575807665	3
2	1452	509.907078012595	4
2	1453	510.066687988331	3
2	1457	510.272330078092	4
2	1459	511.583399236444	5
2	1460	511.590533025031	4
2	1464	512.599342508355	5
2	1465	513.272162748341	4
2	1469	513.52752443389	5
2	1470	515.01786729249	4
2	1474	515.911084106831	5
2	1476	516.196180578207	6
2	1477	516.538715736408	5
2	1481	516.664003397038	6
2	1482	518.364947368976	5
2	1485	519.755905099985	4
2	1488	521.65187033492	3
2	1492	522.044598073493	4
2	1494	522.188543266406	5
2	1496	522.222399406305	6
2	1497	523.20981320313	5
2	1501	523.885016001095	6
2	1502	524.690363823276	5
2	1506	525.3884074125	6
2	1508	525.415343710844	7
2	1509	526.086860141184	6
2	1513	526.359954121987	7
2	1515	526.929418513291	8
2	1516	527.511495488163	7
2	1520	529.158093464306	8
2	1521	529.295247216735	7
2	1525	529.759290695002	8
2	1527	530.885066016122	9
2	1528	531.090496212643	8
2	1532	532.345390886997	9
2	1533	532.679813003566	8
2	1537	533.15360335063	9
2	1538	533.947446967315	8
2	1541	535.534069005612	7
2	1545	536.263647875047	8
2	1546	536.780579793852	7
2	1549	538.186704367984	6
2	1553	538.543237698571	7
2	1556	540.06205033439	6
2	1560	540.313772141948	7
2	1561	541.357959736537	6
2	1565	542.713328290786	7
2	1566	543.006899969492	6
2	1570	543.914504350801	7
2	1571	544.959201771419	6
2	1575	545.151253607259	7
2	1576	546.410623412791	6
2	1580	547.029944825541	7
2	1582	547.248479209964	8
2	1583	547.676869418311	7
2	1587	548.273882560504	8
2	1591	549.24021568752	9
2	1592	549.453098851095	8
2	1596	549.882741871071	9
2	1597	550.680181414845	8
2	1601	551.122667107114	9
2	1602	552.329338089588	8
2	1606	552.815288802987	9
2	1608	552.90731058745	10
2	1609	553.995109657223	9
2	1613	555.153359233709	10
2	1614	555.614483478504	9
2	1618	556.068824053068	10
2	1619	557.575842015656	9
2	1623	558.336111253673	10
2	1625	558.45024420824	11
2	1626	558.914721647116	10
2	1630	559.685912927044	11
2	1631	560.88992344665	10
2	1635	561.007287998291	11
2	1636	562.167957342813	10
2	1640	562.752431498586	11
2	1642	563.585384803437	12
2	1643	563.772692385899	11
2	1647	564.471785298445	12
2	1648	565.706596250856	11
2	1652	565.980935875708	12
2	1655	567.609660148645	11
2	1659	568.527728062519	12
2	1660	569.471778317006	11
2	1664	569.86548631571	12
2	1665	570.919636005001	11
2	1670	572.409591151425	10
2	1673	573.803202185431	9
2	1677	574.892753739355	10
2	1678	575.222629999393	9
2	1682	576.401374631973	10
2	1684	576.553236329102	11
2	1685	577.026545829722	10
2	1689	577.095474863942	11
2	1691	577.095627290594	12
2	1693	577.845296912911	13
2	1694	578.600251661637	12
2	1697	579.870885646367	11
2	1701	580.123710425782	12
2	1703	580.208223705538	13
2	1705	581.321833915034	14
2	1706	581.364614032791	13
2	1709	583.199770408706	12
2	1713	584.331717498081	13
2	1715	584.388472068345	14
2	1716	584.408029907779	13
2	1720	584.683087042288	14
2	1722	585.002245159179	15
2	1723	585.998604786233	14
2	1726	587.480327208177	13
2	1729	588.886347574391	12
2	1733	588.993601816819	13
2	1735	589.819803027585	14
2	1736	590.087611228064	13
2	1740	590.413282994459	14
2	1741	591.997459435486	13
2	1745	592.36456732406	14
2	1746	593.599408480548	13
2	1750	593.910442872919	14
2	1752	594.702601227526	15
2	1754	594.950991249336	16
2	1755	594.987496630498	15
2	1759	596.244200585657	16
2	1760	596.289339969703	15
2	1764	596.938596578154	16
2	1765	597.691807032959	15
2	1768	599.061326959008	14
2	1772	599.775702877741	15
2	1774	600.4289055698	16
2	1775	600.843478525454	15
2	1778	602.700207932876	14
2	1782	602.85687912316	15
2	1783	604.159632383311	14
2	1787	605.410516680138	15
2	1788	605.528782300675	14
2	1791	606.837952567661	13
2	1795	606.85510753768	14
2	1796	608.190853396268	13
2	1800	608.337607407239	14
2	1802	608.453995771047	15
2	1804	608.581945168349	16
2	1805	609.802182685607	15
2	1808	611.035110352957	14
2	1812	612.824091660846	15
2	1813	613.01585250462	14
2	1816	614.753467367241	13
2	1819	616.497186815018	12
2	1823	616.534149879065	13
2	1825	616.939795543442	14
2	1827	617.15651039505	15
2	1828	618.145927075135	14
2	1832	619.140339999854	15
2	1833	619.845621451574	14
2	1836	621.722128390918	13
2	1840	623.043353416752	14
2	1841	623.484765134963	13
2	1844	624.84197307809	12
2	1848	625.310647321097	13
2	1849	626.196342921282	12
2	1853	626.816771283041	13
2	1854	627.935053081463	12
2	1858	628.31503653043	13
2	1860	628.428351038181	14
2	1862	629.119308328309	15
2	1863	629.709652160506	14
2	1866	631.309954071629	13
2	1870	631.368471761121	14
2	1871	632.741456634018	13
2	1875	632.887220883455	14
2	1876	634.31353950205	13
2	1880	634.44028742481	14
2	1883	635.727447335634	13
2	1887	635.877614288147	14
2	1888	637.209818880658	13
2	1892	637.25801559708	14
2	1894	637.712400974099	15
2	1896	638.850029538245	16
2	1897	638.883968579422	15
2	1901	639.28127999551	16
2	1903	639.910548495469	17
2	1904	640.566453466404	16
2	1908	640.848280308225	17
2	1909	641.964717466783	16
2	1912	643.704255466935	15
2	1916	644.533141770363	16
2	1917	645.34541994634	15
2	1921	645.639000884018	16
2	1922	646.606083084856	15
2	1926	646.875133305252	16
2	1927	648.071955213909	15
2	1931	648.828698730326	16
2	1932	649.354046482061	15
2	1936	650.41381279503	16
2	1937	650.664723255885	15
2	1941	651.575216898938	16
2	1943	651.582348279688	17
2	1944	651.918759975051	16
2	1948	652.090599021134	17
2	1950	653.360099118657	18
2	1951	653.442965865721	17
2	1954	654.986994675388	16
2	1957	656.874045673413	15
2	1961	657.036744677813	16
2	1962	658.634052898949	15
2	1966	659.301886629856	16
2	1967	660.014489499507	15
2	1970	661.898822753718	14
2	1974	662.475202443926	15
2	1975	663.644164526677	14
2	1979	663.786566457614	15
2	1981	664.220338830157	16
2	1982	664.857919083191	15
2	1986	666.09019929497	16
2	1987	666.134502754202	15
2	1992	667.638363046413	14
2	1996	669.057175759172	15
2	1997	669.562197829624	14
2	2001	670.259992874909	15
2	2002	670.974967894917	14
2	2005	672.335782036772	13
2	2009	672.675141678286	14
2	2011	673.261314035686	15
2	2013	673.5710374736	16
2	2014	673.838622742174	15
2	2018	674.810125545363	16
2	2019	675.343015508009	15
2	2022	677.01490783452	14
2	2026	677.117928672406	15
2	2028	677.936918059404	16
2	2029	678.28420012745	15
2	2033	678.927086506968	16
2	2034	679.970789303285	15
2	2038	680.634265772749	16
2	2039	681.838491781642	15
2	2043	683.254881956229	16
2	2044	683.406569892382	15
2	2047	685.091801561257	14
2	2051	686.345849335789	15
2	2052	686.617512158146	14
2	2056	687.243182237691	15
2	2058	687.471477996402	16
2	2060	687.514767741006	17
2	2061	688.258487548148	16
2	2065	689.880208504955	17
2	2066	690.164399000099	16
2	2070	690.429343316818	17
2	2072	690.598948514545	18
2	2073	692.096155759906	17
2	2077	692.381027502521	18
2	2078	693.351041827192	17
2	2082	694.219793294535	18
2	2084	694.473440585522	19
2	2085	694.791753928391	18
2	2088	696.020460169231	17
2	2092	696.108746292466	18
2	2093	697.801465936778	17
2	2097	698.126953721248	18
2	2098	699.450309521733	17
2	2102	699.765569531993	18
2	2103	701.086662607854	17
2	2107	702.312195465498	18
2	2108	702.513772781966	17
2	2111	704.062968228971	16
2	2115	705.178504614337	17
2	2116	705.609835146395	16
2	2120	707.115448535508	17
2	2121	707.206334076663	16
2	2125	707.621549407594	17
2	2126	708.790873835263	16
2	2130	709.587246894476	17
2	2132	709.793982042166	18
2	2133	710.318491197591	17
2	2136	711.898975567919	16
2	2140	712.20999277741	17
2	2141	713.78110602091	16
2	2145	714.130044242323	17
2	2146	715.772321047661	16
2	2150	716.645680045808	17
2	2151	716.985951484208	16
2	2154	718.513911390518	15
2	2157	720.41307010821	14
2	2160	721.797857277123	13
2	2165	723.467970216861	12
2	2168	724.827817853009	11
2	2172	725.256892143687	12
2	2174	725.424936044474	13
2	2176	725.87355018529	14
2	2177	726.38976142223	13
2	2181	726.938737065849	14
2	2182	728.197139389841	13
2	2186	728.728458035295	14
2	2187	729.630113358079	13
2	2191	729.898141692216	14
2	2193	730.186823511617	15
2	2194	730.883005148015	14
2	2198	731.103507436336	15
2	2199	732.334919344849	14
2	2202	734.142624793231	13
2	2206	734.832263630089	14
2	2207	736.139985941007	13
2	2211	737.352512860592	14
2	2212	737.609388368792	13
2	2217	738.836810961581	12
2	2221	739.303320701605	13
2	2223	739.340121797487	14
2	2225	739.489104962865	15
2	2226	740.053579333454	14
2	2229	741.855496991083	13
2	2233	743.047769440962	14
2	2235	743.202736772321	15
2	2236	743.672205628112	14
2	2239	745.098222059041	13
2	2242	746.807888869785	12
2	2245	748.05266293104	11
2	2248	749.91910725835	10
2	2251	751.78332566119	9
2	2255	752.709956718539	10
2	2256	753.049997990236	9
2	2260	753.413474520225	10
2	2262	753.532094834367	11
2	2264	753.593965470479	12
2	2265	754.442812992663	11
2	2269	756.320231390162	12
2	2270	756.401305776679	11
2	2274	756.531225444635	12
2	2275	757.722328519666	11
2	2279	758.836762402104	12
2	2280	759.534882988067	11
2	2284	759.755187466549	12
2	2286	760.534975071094	13
2	2287	760.742414357358	12
2	2290	762.058445395374	11
2	2293	763.567036624284	10
2	2296	764.932402673022	9
2	2300	765.458715755647	10
2	2302	765.459885076718	11
2	2304	766.243520793816	12
2	2306	766.471445486131	13
2	2307	766.557681668394	12
2	2312	768.24184585552	11
2	2316	768.360941106135	12
2	2318	769.327906158129	13
2	2319	770.19089823629	12
2	2323	771.268188146662	13
2	2324	771.491830149509	12
2	2327	772.884268235259	11
2	2330	774.107712031186	10
2	2333	775.889156317555	9
2	2337	776.053253862378	10
2	2339	776.556012399703	11
2	2341	777.106086166422	12
2	2343	777.346657557754	13
2	2344	777.797826767743	12
2	2348	778.007513580818	13
2	2350	778.273011222591	14
2	2351	779.308939085745	13
2	2355	779.632694694061	14
2	2356	781.129701351964	13
2	2359	782.448101255142	12
2	2363	783.552466433826	13
2	2364	784.244209671237	12
2	2368	784.912028053977	13
2	2369	785.925848639228	12
2	2373	786.383004527115	13
2	2375	786.733687594687	14
2	2377	787.287570156975	15
2	2378	787.402313756414	14
2	2381	788.799326344051	13
2	2385	789.121535456627	14
2	2386	790.3984552475	13
2	2390	790.658024938231	14
2	2392	791.547340407927	15
2	2393	791.872192928039	14
2	2396	793.19873710911	13
2	2399	794.502220467881	12
2	2402	796.461482613564	11
2	2405	798.061319391832	10
2	2409	798.511327893807	11
2	2411	798.952121797041	12
2	2413	799.10193886032	13
2	2414	799.566939638771	12
2	2417	800.922229227826	11
2	2421	801.088126813326	12
2	2423	801.539646522567	13
2	2425	802.303369803706	14
2	2427	802.558186062213	15
2	2428	802.841377571441	14
2	2431	804.105524577789	13
2	2434	805.47053385175	12
2	2438	805.533097357603	13
2	2440	806.119976440055	14
2	2442	806.750769653188	15
2	2444	806.857786734262	16
2	2445	807.272630376585	15
2	2448	808.741078152351	14
2	2452	809.77734648513	15
2	2453	810.518758493505	14
2	2457	811.646936997585	15
2	2459	812.409681785384	16
2	2460	812.449611983105	15
2	2464	813.191363839846	16
2	2466	814.039296686027	17
2	2467	814.392577852152	16
2	2470	815.846609392419	15
2	2474	816.86850261421	16
2	2476	817.186973443543	17
2	2477	817.277508561156	16
2	2481	818.547900692025	17
2	2483	818.741577198375	18
2	2484	818.789766182035	17
2	2488	819.34720962335	18
2	2489	820.371720958344	17
2	2493	821.926646234581	18
2	2494	822.104213366873	17
2	2498	822.131985997205	18
2	2499	823.649810040213	17
2	2503	824.069999011359	18
2	2504	825.423323843099	17
2	2508	825.476581768065	18
2	2509	827.20899108763	17
2	2513	827.551911291375	18
2	2514	829.164826773323	17
2	2518	829.370948842101	18
2	2520	829.767676168002	19
2	2522	830.834715237269	20
2	2523	830.961704437651	19
2	2528	832.763331620984	18
2	2532	833.072967611841	19
2	2533	834.343021309965	18
2	2537	835.073377436629	19
2	2538	836.143984630362	18
2	2541	838.085991931551	17
2	2545	838.935330394319	18
2	2546	839.390355959379	17
2	2550	840.074161791481	18
2	2552	840.323446622981	19
2	2553	840.735343324424	18
2	2557	840.908414232343	19
2	2558	842.168463991241	18
2	2561	843.867893961662	17
2	2564	845.657515583777	16
2	2568	845.984825493542	17
2	2569	847.575240962611	16
2	2573	848.170287174955	17
2	2575	848.528935035872	18
2	2577	848.604322548007	19
2	2578	849.548678896607	18
2	2582	850.13962956868	19
2	2583	850.934908496247	18
2	2587	851.115153993526	19
2	2588	852.140131496483	18
2	2592	853.093883682916	19
2	2594	853.118736725395	20
2	2595	854.064392864177	19
2	2599	854.431405483766	20
2	2601	854.845116883314	21
2	2602	855.995446723917	20
2	2605	857.892775937573	19
2	2609	858.192420560798	20
2	2610	859.34430835157	19
2	2614	860.082883348824	20
2	2616	860.475037723109	21
2	2617	861.105764390373	20
2	2621	862.087835851361	21
2	2623	862.210964789952	22
2	2624	862.962489279949	21
2	2627	864.181690562361	20
2	2631	864.363865782433	21
2	2633	864.855969301708	22
2	2635	865.377566688137	23
2	2636	865.887848565199	22
2	2640	866.453020127343	23
2	2641	867.818250224583	22
2	2644	869.427570243769	21
2	2648	869.864108110967	22
2	2649	871.132401128144	21
2	2653	871.92178197964	22
2	2654	872.680807249092	21
2	2657	873.887338879176	20
2	2661	874.891812353177	21
2	2662	875.730306331657	20
2	2666	876.450076724647	21
2	2668	876.999397040491	22
2	2669	877.165579581849	21
2	2672	879.144904634945	20
2	2675	880.886977914192	19
2	2679	881.535742657493	20
2	2680	882.120244484797	19
2	2683	883.519108924299	18
2	2687	884.900670735065	19
2	2688	885.332813744463	18
2	2692	886.080493302218	19
2	2694	886.381574146657	20
2	2695	887.157595274068	19
2	2699	887.756818037477	20
2	2700	888.407012732915	19
2	2704	889.120303387412	20
2	2705	889.901833064138	19
2	2709	890.056022823189	20
2	2711	890.595883981837	21
2	2712	891.542916668794	20
2	2716	893.25287790566	21
2	2717	893.362995690136	20
2	2720	895.147932724311	19
2	2724	895.618427245679	20
2	2726	896.246588579685	21
2	2727	896.384338309645	20
2	2731	896.522623918963	21
2	2733	896.777528798261	22
2	2734	897.969510495319	21
2	2738	897.978544531549	22
2	2739	899.814362965367	21
2	2743	900.322537179747	22
2	2744	901.690502500936	21
2	2747	902.926879243768	20
2	2750	904.458020298585	19
2	2754	904.491034926153	20
2	2756	905.077721479241	21
2	2757	905.955842410616	20
2	2761	907.156298644315	21
2	2762	907.441170190676	20
2	2766	908.103632466926	21
2	2768	908.670379119023	22
2	2770	908.74345573107	23
2	2772	908.934974512937	24
2	2773	909.086211447446	23
2	2776	910.599234656459	22
2	2780	911.146198960032	23
2	2781	912.376887822552	22
2	2784	913.929867847665	21
2	2788	914.907349271986	22
2	2789	915.358821924804	21
2	2793	915.97459879496	22
2	2795	916.435517820444	23
2	2796	916.640357179409	22
2	2799	918.080688903323	21
2	2803	919.179636996126	22
2	2804	919.625805578037	21
2	2808	920.246808106134	22
2	2810	920.545399239293	23
2	2812	920.656143444039	24
2	2813	921.307064485951	23
2	2817	921.744358327843	24
2	2819	921.779310404491	25
2	2820	923.088510582997	24
2	2824	923.707562730434	25
2	2826	924.13767435631	26
2	2827	925.064607505156	25
2	2831	925.746889882717	26
2	2832	926.336532749823	25
2	2836	926.794146001793	26
2	2837	927.860488764225	25
2	2841	928.527431252705	26
2	2842	929.341528523369	25
2	2845	930.562811696558	24
2	2849	931.72860497761	25
2	2850	932.318171837955	24
2	2853	933.739889074519	23
2	2857	933.774141323539	24
2	2858	935.391916406557	23
2	2862	935.853734775771	24
2	2864	936.468900183407	25
2	2865	937.276416366018	24
2	2869	937.817062500112	25
2	2871	938.257986464284	26
2	2872	939.142090178683	25
2	2876	939.772559835062	26
2	2877	940.647055776074	25
2	2881	941.390067597755	26
2	2882	942.436957084976	25
2	2886	942.891092113139	26
2	2888	943.430213499218	27
2	2889	944.183987341851	26
2	2893	944.344712044083	27
2	2894	945.600152109593	26
2	2898	946.14688758367	27
2	2899	947.453202463716	26
2	2902	948.99990920949	25
2	2906	949.845688152381	26
2	2908	949.908178713536	27
2	2909	950.64431301973	26
2	2912	952.020728028409	25
2	2916	953.503956669656	26
2	2917	953.740123225964	25
2	2921	955.388335039546	26
2	2922	955.684974372044	25
2	2925	957.491509438894	24
2	2929	958.245203048832	25
2	2930	959.297688355698	24
2	2934	959.454376862332	25
2	2935	960.82554357688	24
2	2938	962.757253181032	23
2	2941	964.329558505892	22
2	2945	965.365816322584	23
2	2946	965.639831194497	22
2	2949	967.59966986145	21
2	2953	968.526773145615	22
2	2955	968.557609668021	23
2	2956	969.569225745118	22
2	2960	970.715513482039	23
2	2961	970.973292533151	22
2	2965	971.54689125753	23
2	2966	972.604506660654	22
2	2970	973.334463585286	23
2	2971	974.35205787628	22
2	2975	974.391329445797	23
2	2976	975.810820359579	22
2	2980	976.107549760382	23
2	2983	977.524011646985	22
2	2986	978.771438346646	21
2	2990	979.01664597895	22
2	2991	980.606605617545	21
2	2995	981.281713361367	22
2	2996	982.280701223976	21
2	2999	983.483056766755	20
2	3002	984.877957937523	19
2	3006	984.998179765412	20
2	3008	986.386145099086	21
2	3009	986.773687984823	20
2	3013	987.981843396717	21
2	3015	987.98713022606	22
2	3016	988.273666272527	21
2	3020	988.648035403339	22
2	3022	989.223969480762	23
2	3023	989.768642427614	22
2	3026	991.65900785367	21
2	3030	992.301017057219	22
2	3032	992.75533171481	23
2	3033	993.566398111386	22
2	3037	993.830918966353	23
2	3038	995.025109609989	22
2	3041	996.321834209216	21
2	3045	997.041446245567	22
2	3047	997.254298352524	23
2	3049	997.396522656519	24
2	3051	997.671333685776	25
2	3052	998.077391589833	24
2	3055	999.589478745525	23
2	3059	999.718808608657	24
2	3061	1000.08260141483	25
2	3062	1000.958966445019	24
2	3066	1001.594550653901	25
2	3067	1002.624711813246	24
2	3070	1004.231569130187	23
2	3073	1005.452064667483	22
2	3079	1006.893188678846	23
2	3080	1007.11280972476	22
2	3083	1008.955480934706	21
2	3086	1010.628256695185	20
2	3090	1011.259743589652	21
2	3091	1011.871540687818	20
2	3094	1013.485132686447	19
2	3098	1013.691479409239	20
2	3100	1014.105279143626	21
2	3101	1014.692489291753	20
2	3105	1015.284340934685	21
2	3107	1015.680930802561	22
2	3108	1016.249170544396	21
2	3111	1017.536168110396	20
2	3115	1018.167935914122	21
2	3117	1018.883784906959	22
2	3119	1019.201763695899	23
2	3120	1019.205180593978	22
2	3123	1021.054627190556	21
2	3127	1022.549162730045	22
2	3128	1022.576630321357	21
2	3133	1024.366946995284	20
2	3138	1025.812997360553	19
2	3142	1026.676519870717	20
2	3143	1027.211860218856	19
2	3147	1027.35031373826	20
2	3149	1028.259953842149	21
2	3150	1028.967000703539	20
2	3153	1030.824431831974	19
2	3157	1030.997745706022	20
2	3158	1032.545462486732	19
2	3161	1034.195216805513	18
2	3165	1034.278595499751	19
2	3166	1035.651126088041	18
2	3169	1037.589619892675	17
2	3173	1037.742125646271	18
2	3175	1038.559576703895	19
2	3176	1039.54473182692	18
2	3180	1039.663270672955	19
2	3182	1040.135761083133	20
2	3183	1040.765263239507	19
2	3187	1041.463508374515	20
2	3188	1042.101012353253	19
2	3192	1043.377692079198	20
2	3193	1043.732221743863	19
2	3197	1045.395708637677	20
2	3198	1045.460238079566	19
2	3201	1047.400282615076	18
2	3205	1047.775767193731	19
2	3207	1048.308861378569	20
2	3208	1049.136720572065	19
2	3211	1050.368984312031	18
2	3214	1051.715948712293	17
2	3218	1051.932178706335	18
2	3220	1051.980756993804	19
2	3221	1052.939725903634	18
2	3225	1053.173465016785	19
2	3226	1054.633699028034	18
2	3230	1056.066759283448	19
2	3231	1056.185203589339	18
2	3234	1057.589833483499	17
2	3238	1059.255232457241	18
2	3239	1059.463889909562	17
2	3243	1060.565183934238	18
2	3244	1060.788664708872	17
2	3247	1062.204248052117	16
2	3251	1062.445267725153	17
2	3253	1062.899715050861	18
2	3255	1063.398850213174	19
2	3256	1064.01022914036	18
2	3260	1064.330224810133	19
2	3262	1065.049528358523	20
2	3264	1065.134391310727	21
2	3266	1065.287745752333	22
2	3267	1065.926498474579	21
2	3271	1066.196239563866	22
2	3272	1067.71444551314	21
2	3275	1069.212811042767	20
2	3278	1071.145253593128	19
2	3282	1071.335546308568	20
2	3284	1071.407055826916	21
2	3285	1072.760762575853	20
2	3288	1074.280357764128	19
2	3294	1075.008852828033	20
2	3296	1075.432838080733	21
2	3297	1076.007294680017	20
2	3301	1076.372532515772	21
2	3302	1077.872194399151	20
2	3305	1079.221941206816	19
2	3309	1079.491544717455	20
2	3310	1080.73584242	19
2	3314	1080.956594786842	20
2	3317	1082.265397536221	19
2	3321	1083.320711672146	20
2	3322	1083.930736543263	19
2	3325	1085.364738588991	18
2	3329	1085.821493638063	19
2	3331	1087.349809949641	20
2	3332	1087.360872646446	19
2	3335	1088.964272834385	18
2	3339	1089.960450480889	19
2	3340	1090.439133220563	18
2	3343	1092.007174862387	17
2	3347	1093.115146476259	18
2	3348	1093.40919054656	17
2	3352	1093.584018634008	18
2	3353	1095.11012029017	17
2	3356	1096.968448797266	16
2	3360	1097.07648725046	17
2	3361	1098.657614456329	16
2	3364	1100.386946342911	15
2	3368	1101.282520034888	16
2	3370	1102.040104681063	17
2	3371	1102.279648595888	16
2	3375	1102.34452763962	17
2	3378	1103.936730272721	16
2	3381	1105.775335904236	15
2	3385	1106.884210266853	16
2	3386	1106.980884760643	15
2	3390	1107.774651082783	16
2	3392	1108.177405380098	17
2	3393	1108.570359625692	16
2	3397	1108.786280990437	17
2	3400	1110.032082024241	16
2	3404	1110.512413225065	17
2	3405	1111.652801186988	16
2	3409	1112.111628893486	17
2	3411	1112.264879456495	18
2	3412	1113.122132377351	17
2	3416	1114.62458067896	18
2	3417	1115.106395338314	17
2	3421	1115.913494975056	18
2	3422	1116.963376569772	17
2	3425	1118.49327100257	16
2	3429	1119.16439138774	17
2	3431	1119.198789549642	18
2	3433	1119.312305088571	19
2	3435	1119.825741537675	20
2	3436	1120.412544441247	19
2	3440	1121.571838245203	20
2	3441	1121.81292213148	19
2	3445	1122.146711726974	20
2	3446	1123.130250790739	19
2	3449	1124.499942502962	18
2	3453	1125.041389572591	19
2	3455	1126.076640059703	20
2	3456	1126.470657833317	19
2	3460	1126.952193358534	20
2	3462	1127.03812899708	21
2	3464	1127.819916328352	22
2	3465	1128.13056721876	21
2	3468	1129.533843710298	20
2	3472	1130.487618853273	21
2	3474	1130.713089020893	22
2	3477	1131.088929850633	21
2	3481	1131.617782050632	22
2	3482	1132.540893224465	21
2	3486	1133.738078184625	22
2	3487	1134.347183854902	21
2	3490	1135.986580377282	20
2	3493	1137.298074369156	19
2	3497	1137.31703712059	20
2	3498	1138.725546725304	19
2	3502	1139.329795693881	20
2	3504	1139.67505735512	21
2	3506	1139.805248725976	22
2	3507	1140.111286309199	21
2	3511	1141.603986986321	22
2	3512	1141.655729704002	21
2	3516	1142.628043327593	22
2	3517	1142.87141954268	21
2	3520	1144.085631686287	20
2	3523	1145.378965138668	19
2	3528	1147.237145919749	18
2	3532	1147.952070114966	19
2	3533	1148.908767563873	18
2	3536	1150.906140590669	17
2	3539	1152.316139801988	16
2	3543	1153.064284844498	17
2	3544	1153.679463112006	16
2	3548	1154.936735414668	17
2	3549	1155.131745144935	16
2	3553	1156.33989431858	17
2	3555	1156.793413108019	18
2	3556	1156.838123646589	17
2	3560	1158.123170776174	18
2	3561	1158.322183808895	17
2	3565	1159.022171652792	18
2	3566	1160.239395245748	17
2	3570	1161.20696857161	18
2	3571	1161.968044425758	17
2	3575	1162.644666289125	18
2	3577	1163.241141568398	19
2	3578	1163.488160275506	18
2	3583	1164.731818215201	17
2	3587	1165.734166468449	18
2	3588	1166.685690260889	17
2	3591	1168.35266950226	16
2	3595	1168.613467046105	17
2	3597	1168.705726876602	18
2	3599	1169.468354255851	19
2	3600	1169.849892480137	18
2	3603	1171.300212108741	17
2	3607	1172.978812295443	18
2	3608	1173.190532570357	17
2	3611	1175.13636867779	16
2	3615	1175.60297718674	17
2	3617	1175.761648852603	18
2	3618	1176.612559580269	17
2	3621	1177.957204866248	16
2	3624	1179.221550268146	15
2	3627	1180.8922337577	14
2	3631	1181.096858926517	15
2	3632	1182.27684250104	14
2	3636	1182.348788566822	15
2	3637	1183.948420940551	14
2	3641	1184.322911863026	15
2	3642	1185.516483586307	14
2	3645	1187.475520607855	13
2	3651	1189.069811228542	14
2	3652	1189.208196155567	13
2	3656	1189.722767836311	14
2	3657	1190.429051711995	13
2	3662	1191.90248808882	12
2	3666	1191.945325757665	13
2	3668	1193.566681573139	14
2	3669	1193.617428684261	13
2	3673	1193.807280033037	14
2	3675	1194.225666622415	15
2	3676	1195.046586991314	14
2	3679	1196.497532689598	13
2	3684	1198.255068398666	12
2	3688	1198.51374798746	13
2	3690	1198.639613317088	14
2	3692	1199.476548955945	15
2	3693	1199.910472320047	14
2	3697	1200.152350296252	15
2	3699	1200.202779338138	16
2	3701	1200.328843748729	17
2	3703	1200.574761702383	18
2	3704	1201.117986897592	17
2	3707	1202.960566609752	16
2	3710	1204.741717600477	15
2	3714	1205.668911717805	16
2	3716	1205.848032913029	17
2	3718	1205.950291991946	18
2	3720	1206.544284216908	19
2	3721	1206.692331829322	18
2	3724	1208.346861329516	17
2	3728	1208.622741153751	18
2	3730	1208.67829642586	19
2	3731	1209.71664455722	18
2	3735	1210.159595888522	19
2	3736	1211.171565711712	18
2	3739	1212.82185182034	17
2	3743	1213.689980170985	18
2	3744	1214.763637728644	17
2	3748	1215.171344529644	18
2	3749	1216.202771298428	17
2	3752	1217.581868482594	16
2	3755	1219.00257410745	15
2	3759	1219.026352624574	16
2	3761	1219.496063800028	17
2	3763	1219.554812105792	18
2	3764	1220.458713751127	17
2	3768	1220.628585737078	18
2	3770	1220.897336163856	19
2	3772	1221.350294620994	20
2	3773	1221.932281443876	19
2	3777	1223.430678546649	20
2	3778	1223.519091670801	19
2	3782	1223.583888374319	20
2	3784	1223.905143170884	21
2	3786	1224.328181611268	22
2	3787	1225.050224906606	21
2	3790	1226.452479614158	20
2	3794	1226.91585637645	21
2	3795	1227.901391735514	20
2	3799	1228.502002826382	21
2	3801	1228.763246141269	22
2	3803	1229.390081034263	23
2	3804	1229.635326295373	22
2	3808	1231.241214841856	23
2	3809	1231.615477304374	22
2	3812	1233.097134162513	21
2	3816	1233.760733948512	22
2	3818	1234.095836279791	23
2	3820	1234.386142801556	24
2	3821	1235.048151160245	23
2	3824	1236.643157111135	22
2	3828	1238.455850130195	23
2	3829	1238.493620276478	22
2	3832	1239.785602230233	21
2	3835	1241.063150842887	20
2	3839	1241.905441742937	21
2	3840	1242.760020873536	20
2	3843	1244.661712841903	19
2	3846	1246.567221348201	18
2	3850	1246.830646129185	19
2	3851	1248.486753875603	18
2	3855	1248.771878646867	19
2	3857	1249.035524189549	20
2	3859	1250.187336012822	21
2	3861	1250.277407360926	22
2	3862	1250.43245802543	21
2	3866	1250.877505785586	22
2	3868	1251.821054058129	23
2	3869	1252.204337195706	22
2	3873	1253.560864806285	23
2	3874	1254.054741404046	22
2	3878	1254.078574357507	23
2	3880	1255.756712933801	24
2	3881	1255.883722377781	23
2	3885	1256.655773521276	24
2	3886	1257.364923272681	23
2	3890	1257.479180589289	24
2	3891	1259.07852572522	23
2	3895	1259.105092869784	24
2	3897	1259.749535676302	25
2	3898	1260.650285265994	24
2	3902	1261.109196223284	25
2	3904	1261.191426427133	26
2	3905	1262.562684743878	25
2	3909	1263.893193677121	26
2	3910	1264.096516262394	25
2	3914	1264.840820587194	26
2	3915	1266.063388888751	25
2	3918	1267.579082606201	24
2	3922	1269.302202558176	25
2	3923	1269.324894784418	24
2	3926	1270.785721933683	23
2	3930	1271.164672485994	24
2	3932	1271.624882406421	25
2	3933	1272.711381003661	24
2	3937	1272.808521301115	25
2	3938	1274.357448090641	24
2	3942	1274.637207912125	25
2	3944	1275.490499838098	26
2	3945	1275.809766803151	25
2	3948	1277.644119906453	24
2	3952	1277.660926673069	25
2	3954	1279.398240095649	26
2	3955	1279.612223596712	25
2	3958	1281.356852784966	24
2	3962	1282.662994520244	25
2	3964	1282.873859775019	26
2	3965	1283.312335501266	25
2	3968	1285.023236583201	24
2	3971	1286.802931146538	23
2	3974	1288.583340148097	22
2	3978	1289.152577902807	23
2	3981	1290.245128369732	22
2	3985	1290.673625840641	23
2	3987	1291.069356098665	24
2	3988	1291.806745924456	23
2	3992	1292.579744444604	24
2	3993	1293.564436928397	23
2	3998	1294.772271473734	22
2	4002	1295.03797001913	23
2	4003	1296.743940357892	22
2	4006	1298.363972345209	21
2	4009	1299.943761345214	20
2	4013	1301.646872655943	21
2	4014	1301.835893582395	20
2	4017	1303.56485119856	19
2	4021	1303.986088758252	20
2	4022	1305.242459480493	19
2	4026	1305.722837690228	20
2	4027	1306.659607963293	19
2	4032	1308.301833023346	18
2	4035	1309.66657159648	17
2	4039	1311.013376024997	18
2	4040	1311.228016260295	17
2	4044	1312.234578722017	18
2	4045	1312.530344444542	17
2	4049	1312.626960561234	18
2	4051	1312.699336970298	19
2	4053	1313.254542035375	20
2	4054	1314.338232464558	19
2	4058	1314.709753565524	20
2	4059	1315.752408169611	19
2	4062	1317.073223586595	18
2	4066	1317.737933551118	19
2	4068	1318.516201657779	20
2	4069	1318.779464950627	19
2	4073	1319.016921512517	20
2	4075	1320.071084776824	21
2	4076	1320.214182683667	20
2	4080	1321.263275674461	21
2	4081	1322.025725059053	20
2	4084	1323.432553935824	19
2	4088	1323.893241096425	20
2	4089	1324.758629014744	19
2	4093	1325.172457695541	20
2	4096	1326.177925601258	19
2	4100	1327.003898890669	20
2	4102	1327.111504652537	21
2	4103	1328.150412665709	20
2	4106	1329.824888798065	19
2	4110	1331.541633963654	20
2	4111	1331.821726727515	19
2	4115	1332.166323810857	20
2	4116	1333.553083779878	19
2	4120	1333.697817711986	20
2	4122	1335.034873526519	21
2	4123	1335.327621849469	20
2	4127	1336.039024553431	21
2	4129	1336.097978945097	22
2	4130	1336.669961924694	21
2	4133	1338.543144047662	20
2	4137	1339.369506422321	21
2	4138	1340.310399961873	20
2	4141	1342.158540534257	19
2	4144	1343.80051652792	18
2	4148	1344.195427335217	19
2	4150	1345.144880572777	20
2	4151	1345.367607843532	19
2	4154	1347.170052841148	18
2	4157	1349.00941805265	17
2	4161	1349.029321217216	18
2	4163	1350.216738538133	19
2	4165	1350.360205774686	20
2	4166	1350.622680604114	19
2	4170	1352.168905736665	20
2	4171	1352.288778089761	19
2	4175	1353.112752964972	20
2	4176	1353.837573836028	19
2	4180	1354.053216107529	20
2	4181	1355.696719486109	19
2	4184	1357.238089107751	18
2	4188	1358.068684215431	19
2	4190	1359.032308213081	20
2	4191	1359.080797948903	19
2	4194	1360.50722450058	18
2	4198	1360.619600129088	19
2	4200	1360.972744884081	20
2	4201	1362.47090547069	19
2	4204	1364.458963411702	18
2	4208	1365.765476713782	19
2	4209	1366.033968643872	18
2	4212	1367.868949499754	17
2	4216	1369.248296956885	18
2	4217	1369.33167865931	17
2	4221	1370.1918682223	18
2	4222	1370.912418145341	17
2	4226	1371.121906979943	18
2	4228	1372.443831098828	19
2	4229	1372.701217746017	18
2	4232	1374.135478539792	17
2	4236	1374.328605756031	18
2	4237	1375.608444818695	17
2	4240	1377.20020971096	16
2	4244	1378.217405782779	17
2	4246	1378.228029155958	18
2	4247	1378.658637009588	17
2	4253	1379.43297231599	18
2	4255	1379.444402448641	19
2	4257	1380.309084409709	20
2	4258	1380.545391109985	19
2	4262	1381.890305604639	20
2	4263	1381.961390305523	19
2	4267	1382.218009698656	20
2	4269	1383.114749698238	21
2	4270	1383.689773766536	20
2	4274	1384.102951774067	21
2	4275	1385.105372857328	20
2	4279	1385.473557820774	21
2	4280	1386.703714096199	20
2	4284	1386.929843191781	21
2	4285	1388.280644542377	20
2	4288	1389.538333677712	19
2	4291	1391.12369255128	18
2	4294	1392.331883735048	17
2	4298	1392.458922873783	18
2	4300	1392.544390514567	19
2	4302	1393.120261865362	20
2	4303	1394.297750443431	19
2	4307	1394.302749813014	20
2	4308	1396.182795507299	19
2	4311	1397.625663010242	18
2	4315	1397.966984545007	19
2	4317	1398.301496813968	20
2	4318	1398.986239087793	19
2	4321	1400.448506887841	18
2	4325	1402.173157910094	19
2	4326	1402.213835970896	18
2	4330	1402.33513488093	19
2	4332	1402.551789768149	20
2	4334	1403.316442741624	21
2	4335	1404.13563291731	20
2	4339	1404.164389499137	21
2	4342	1406.007576370451	20
2	4346	1407.19571603458	21
2	4347	1407.539427495773	20
2	4350	1408.916732079375	19
2	4354	1409.865513221329	20
2	4355	1410.292105894375	19
2	4359	1410.850533373258	20
2	4360	1412.205603704441	19
2	4363	1414.098786407176	18
2	4366	1415.339707210872	17
2	4369	1417.190480202648	16
2	4372	1418.634132097128	15
2	4376	1418.984534801405	16
2	4377	1420.50580381884	15
2	4381	1420.71237728385	16
2	4382	1422.423796395983	15
2	4386	1422.618689082641	16
2	4388	1422.867371773898	17
2	4390	1423.428987619635	18
2	4391	1424.04713751937	17
2	4395	1424.184877744193	18
2	4397	1424.810261646703	19
2	4398	1425.65647143333	18
2	4402	1425.970119524303	19
2	4404	1426.433189030529	20
2	4405	1427.419803730797	19
2	4409	1427.634693166804	20
2	4410	1429.076411952291	19
2	4414	1429.20942406839	20
2	4416	1430.197801431473	21
2	4417	1430.7786174387	20
2	4421	1430.839813233772	21
2	4423	1431.056119592424	22
2	4425	1431.34130338307	23
2	4426	1431.98860136776	22
2	4429	1433.318052378695	21
2	4433	1433.801547937627	22
2	4434	1435.057083978716	21
2	4438	1436.255551226166	22
2	4439	1436.724404606063	21
2	4443	1437.083115806729	22
2	4444	1438.257345341358	21
2	4447	1439.957209224466	20
2	4450	1441.352381384771	19
2	4454	1441.366793611609	20
2	4455	1442.845464131821	19
2	4459	1443.752782450589	20
2	4460	1444.266138795976	19
2	4464	1444.363451058206	20
2	4467	1446.20369217268	19
2	4471	1446.584942850933	20
2	4472	1448.170908349592	19
2	4476	1449.094728581272	20
2	4477	1449.746328633677	19
2	4481	1450.509536157613	20
2	4482	1451.442214556251	19
2	4486	1452.52852568332	20
2	4488	1452.643024651909	21
2	4489	1452.88555545735	20
2	4493	1453.698676609046	21
2	4494	1454.548960196067	20
2	4497	1456.367499842335	19
2	4500	1458.163683371086	18
2	4504	1459.708791285727	19
2	4505	1459.799705456596	18
2	4509	1460.636022776875	19
2	4510	1461.175169209976	18
2	4513	1462.75139613862	17
2	4517	1463.534148655623	18
2	4518	1463.963600300279	17
2	4521	1465.600254256119	16
2	4525	1466.755512603715	17
2	4527	1467.246952472561	18
2	4528	1467.398278473903	17
2	4531	1469.033981112417	16
2	4535	1470.397075865982	17
2	4536	1470.517228562411	16
2	4540	1470.718213649448	17
2	4542	1470.815689633446	18
2	4543	1472.09811641651	17
2	4546	1473.802817065295	16
2	4549	1475.313914770473	15
2	4553	1476.490047763642	16
2	4555	1477.064248112749	17
2	4556	1477.290839657773	16
2	4560	1477.729408222537	17
2	4561	1479.052390326773	16
2	4565	1480.285542308156	17
2	4567	1480.474216858984	18
2	4568	1480.772203141292	17
2	4572	1481.94610889395	18
2	4573	1482.070294370716	17
2	4576	1483.7584321352	16
2	4580	1484.125313893899	17
2	4581	1485.511740927985	16
2	4585	1486.026568319509	17
2	4586	1486.820358057721	16
2	4589	1488.422357327706	15
2	4593	1489.043190096588	16
2	4594	1490.146368277474	15
2	4597	1491.488261247082	14
2	4600	1492.864391360833	13
2	4604	1493.908327089114	14
2	4606	1494.006607036098	15
2	4607	1494.287883026926	14
2	4610	1496.101172539061	13
2	4614	1497.008489904743	14
2	4616	1497.344081084206	15
2	4617	1497.649947933136	14
2	4620	1499.132106580614	13
2	4624	1500.220099988186	14
2	4625	1500.512635682366	13
2	4629	1501.000206883504	14
2	4631	1501.420972454642	15
2	4632	1501.976764162473	14
2	4636	1502.104299360288	15
2	4637	1503.808211498737	14
2	4640	1505.79843734245	13
2	4644	1506.500275344802	14
2	4646	1506.759323874962	15
2	4647	1507.606473318145	14
2	4651	1507.959969252234	15
2	4652	1508.822951363057	14
2	4655	1510.303497440212	13
2	4659	1511.117743535939	14
2	4660	1511.570361787484	13
2	4664	1511.618427727913	14
2	4666	1512.619579569627	15
2	4667	1513.279382915639	14
2	4671	1513.488238689724	15
2	4672	1514.98880885321	14
2	4676	1515.334194937753	15
2	4677	1516.335242739351	14
2	4680	1518.018039789455	13
2	4684	1518.894181845906	14
2	4685	1519.77349850166	13
2	4688	1521.063073672199	12
2	4691	1522.80476010389	11
2	4695	1523.098487274627	12
2	4697	1523.103202807195	13
2	4698	1524.203704427586	12
2	4701	1525.7167871781	11
2	4704	1527.692788657204	10
2	4708	1528.037674013201	11
2	4710	1528.822852021498	12
2	4711	1529.030274381147	11
2	4714	1530.610725555786	10
2	4718	1531.614551263526	11
2	4719	1532.233399787576	10
2	4722	1533.483713368916	9
2	4726	1533.975151218912	10
2	4727	1535.062724781253	9
2	4731	1536.609327115349	10
2	4732	1537.051603019827	9
2	4735	1538.269061342099	8
2	4739	1540.117745575517	9
2	4740	1540.173469160714	8
2	4744	1541.067416777462	9
2	4745	1541.977206052684	8
2	4748	1543.657759057016	7
2	4752	1544.698182599046	8
2	4753	1545.319206680574	7
2	4757	1545.728746883638	8
2	4758	1546.785327403836	7
2	4762	1547.297147333434	8
2	4764	1548.084848715958	9
2	4765	1548.759172319651	8
2	4769	1549.051911370517	9
2	4770	1550.680732754834	8
2	4774	1551.880657998133	9
2	4775	1551.937349266402	8
2	4778	1553.268261345692	7
2	4782	1553.863593848641	8
2	4784	1553.988021069443	9
2	4786	1554.133758768798	10
2	4787	1554.589008793078	9
2	4790	1556.292085932225	8
2	4794	1556.501289467365	9
2	4795	1557.503516135022	8
2	4798	1559.053708464868	7
2	4801	1560.877369358793	6
2	4805	1560.946559567683	7
2	4807	1561.734600852276	8
2	4808	1562.345653852292	7
2	4812	1562.82767582155	8
2	4813	1563.793566136465	7
2	4817	1564.094197242248	8
2	4818	1565.618581709482	7
2	4821	1567.542164417014	6
2	4825	1567.897753011438	7
2	4827	1569.117295200409	8
2	4829	1569.143212005472	9
2	4830	1569.202746399522	8
2	4834	1569.957966608941	9
2	4835	1570.72691233813	8
2	4838	1572.591981857858	7
2	4842	1572.730009738375	8
2	4843	1574.054891748942	7
2	4847	1574.881306812531	8
2	4848	1575.671442978672	7
2	4852	1575.746509659641	8
2	4853	1577.616563924617	7
2	4857	1578.757627177408	8
2	4858	1579.024670939362	7
2	4861	1580.243460571049	6
2	4864	1582.240622156887	5
2	4868	1583.211427201824	6
2	4869	1583.953520108788	5
2	4873	1584.143643384191	6
2	4874	1585.187144725612	5
2	4878	1585.46649097604	6
2	4880	1586.352959565689	7
2	4881	1586.850599965668	6
2	4884	1588.426360336161	5
2	4888	1588.753544585488	6
2	4890	1588.869932552762	7
2	4892	1589.155433103567	8
2	4893	1590.196529144077	7
2	4896	1591.776952035567	6
2	4900	1593.364910488203	7
2	4901	1593.687711665062	6
2	4904	1595.30156475923	5
2	4908	1595.631068328839	6
2	4910	1595.706726215426	7
2	4911	1596.642843548981	6
2	4915	1597.323962737957	7
2	4916	1598.143120604036	6
2	4920	1599.536306562015	7
2	4921	1599.609489228977	6
2	4925	1599.962519156665	7
2	4927	1600.229439586524	8
2	4928	1601.352017590059	7
2	4932	1601.860383671468	8
2	4934	1602.531224006842	9
2	4935	1603.049067122517	8
2	4939	1603.162068200193	9
2	4941	1603.439460233328	10
2	4943	1603.463149573647	11
2	4944	1604.524682174092	10
2	4948	1605.003303754995	11
2	4950	1605.25417951219	12
2	4952	1605.881692515786	13
2	4953	1606.203814885793	12
2	4956	1607.773961158497	11
2	4960	1607.963512317546	12
2	4964	1608.079560872614	13
2	4966	1609.554763954643	14
2	4967	1609.706016310146	13
2	4971	1609.858099571799	14
2	4973	1611.144523276311	15
2	4974	1611.188260387843	14
2	4977	1612.519312606034	13
2	4981	1613.097488669784	14
2	4983	1613.20420929482	15
2	4984	1614.10995118807	14
2	4988	1614.364024767082	15
2	4990	1615.245920813537	16
2	4991	1615.639165158597	15
2	4994	1617.605091615607	14
2	4998	1617.977753252327	15
2	4999	1618.835237768506	14
2	5003	1619.892162696274	15
2	5004	1620.806055367765	14
2	5008	1621.360802097275	15
2	5009	1622.688646100116	14
2	5013	1623.161444851853	15
2	5014	1624.430740499151	14
2	5017	1626.150389988375	13
2	5021	1626.671965133519	14
2	5022	1627.965035066408	13
2	5026	1628.381453512536	14
2	5027	1629.852861791504	13
2	5031	1631.218955279108	14
2	5032	1631.36385071895	13
2	5035	1632.710409816195	12
2	5041	1634.080533434358	13
2	5042	1634.596144182821	12
2	5046	1635.170058984847	13
2	5047	1635.857890195613	12
2	5051	1637.019279471222	13
2	5052	1637.39561686742	12
2	5056	1637.613009159058	13
2	5058	1638.288256278658	14
2	5059	1638.966130927232	13
2	5062	1640.817570760314	12
2	5066	1640.855974151433	13
2	5067	1642.110373073098	12
2	5070	1643.388708278564	11
2	5073	1644.780044771758	10
2	5077	1645.068166234042	11
2	5078	1646.216054382761	10
2	5081	1647.576793469516	9
2	5085	1648.163528545211	10
2	5086	1648.814825291773	9
2	5090	1648.899958396635	10
2	5092	1648.9047252928	11
2	5094	1648.992655881596	12
2	5095	1650.694691838165	11
2	5099	1651.003098521257	12
2	5101	1651.568626825864	13
2	5102	1652.0664120829	12
2	5105	1653.317727879834	11
2	5109	1654.391880478541	12
2	5111	1654.51668647089	13
2	5113	1654.687044974337	14
2	5115	1654.758607254761	15
2	5116	1655.26805389284	14
2	5119	1657.057416146834	13
2	5123	1657.386270823356	14
2	5125	1658.560070815438	15
2	5126	1658.648347200666	14
2	5129	1660.304002440375	13
2	5133	1660.398561429529	14
2	5135	1660.501619031808	15
2	5137	1662.157346851584	16
2	5138	1662.263591678467	15
2	5142	1662.74221486162	16
2	5143	1664.047043711532	15
2	5146	1665.401695723858	14
2	5150	1665.780526222929	15
2	5151	1667.133501114723	14
2	5155	1668.550281048786	15
2	5156	1668.688855399032	14
2	5160	1669.789809875831	15
2	5162	1670.339005324261	16
2	5163	1670.36952023304	15
2	5167	1670.386440530563	16
2	5168	1671.886179018607	15
2	5171	1673.562050244612	14
2	5175	1674.130151556599	15
2	5178	1675.450224596848	14
2	5182	1676.217605951726	15
2	5183	1677.175137536255	14
2	5187	1677.248119836033	15
2	5188	1678.387341568833	14
2	5191	1679.671601024112	13
2	5195	1679.691175438257	14
2	5196	1681.529058776265	13
2	5200	1681.965546116636	14
2	5201	1683.000780291138	13
2	5204	1684.710845193295	12
2	5207	1686.148984712204	11
2	5210	1687.768257138906	10
2	5213	1689.049993374227	9
2	5216	1690.352995993784	8
2	5220	1690.895408130282	9
2	5223	1691.569191342807	8
2	5226	1693.408262444502	7
2	5230	1693.706892118008	8
2	5231	1695.235435448801	7
2	5235	1695.339027120567	8
2	5237	1695.36215364782	9
2	5238	1696.45927734564	8
2	5242	1697.042873403459	9
2	5244	1697.622940639318	10
2	5245	1698.345937524204	9
2	5248	1700.201059996364	8
2	5251	1701.929081932483	7
2	5254	1703.210776017448	6
2	5257	1704.458676831825	5
2	5261	1704.510080306306	6
2	5263	1705.083527869519	7
2	5264	1705.789106453797	6
2	5268	1705.829105198019	7
2	5269	1707.227792145526	6
2	5273	1707.653766550543	7
2	5274	1708.696439918159	6
2	5278	1709.831927307511	7
2	5279	1709.968238853319	6
2	5283	1710.375802903655	7
2	5284	1711.291266679978	6
2	5287	1712.640112108206	5
2	5291	1712.852353500402	6
2	5293	1713.14114809769	7
2	5294	1714.294753369158	6
2	5298	1714.892650554695	7
2	5299	1715.5277558666	6
2	5302	1717.429216189896	5
2	5306	1718.856772775806	6
2	5307	1719.030305690718	5
2	5311	1720.397877419968	6
2	5312	1720.910420165797	5
2	5316	1721.892450690543	6
2	5318	1722.538175907068	7
2	5319	1722.561861352277	6
2	5322	1723.892764557739	5
2	5326	1724.648250316749	6
2	5327	1725.626807880056	5
2	5331	1726.634409661501	6
2	5332	1727.57165959238	5
2	5336	1728.684268126363	6
2	5337	1729.177746070204	5
2	5341	1729.680233115609	6
2	5342	1730.989139813212	5
2	5346	1731.726625215542	6
2	5347	1732.619321233806	5
2	5351	1733.39941173259	6
2	5352	1734.275002699745	5
2	5355	1736.15356726556	4
2	5359	1736.456204664952	5
2	5360	1737.942148280916	4
2	5364	1739.30443280703	5
2	5365	1739.509667362114	4
2	5368	1741.065614264113	3
2	5372	1741.887154925985	4
2	5373	1742.637616569762	3
2	5377	1742.932992244896	4
2	5379	1744.21995141732	5
2	5380	1744.462075040144	4
2	5384	1744.80294618686	5
2	5385	1746.344403054033	4
2	5389	1746.867292668268	5
2	5390	1747.710290303667	4
2	5394	1748.915298247356	5
2	5395	1749.45457414112	4
2	5399	1749.731935324318	5
2	5400	1750.874962258925	4
2	5404	1751.261340309127	5
2	5405	1752.675884379101	4
2	5409	1753.296250142295	5
2	5410	1753.935470519987	4
2	5414	1755.408325806972	5
2	5417	1755.889173127179	4
2	5421	1756.423850427684	5
2	5422	1757.241180976135	4
2	5425	1759.037745262523	3
2	5429	1760.017443413741	4
2	5430	1760.566338195679	3
2	5434	1761.202112414436	4
2	5435	1762.080638398071	3
2	5438	1763.747376849716	2
2	5441	1765.264873260101	1
2	5445	1765.899881421082	2
2	5447	1766.028774443263	3
2	5448	1766.525537486029	2
2	5452	1767.691352569225	3
2	5453	1768.056908646812	2
2	5457	1768.856497150127	3
2	5458	1769.726753143435	2
2	5462	1770.899162970017	3
2	5463	1770.979656864917	2
2	5466	1772.704525771206	1
2	5469	1774.406990676773	0
2	5481	1777.656187300935	1
2	5482	1778.782003192258	0
2	5486	1779.335041816973	1
2	5489	1780.125667542246	0
2	5493	1780.956586597078	1
2	5496	1781.623802692842	0
2	5500	1781.924118655217	1
2	5502	1783.265003526086	2
2	5503	1783.30333293083	1
2	5507	1784.562854390741	2
2	5508	1785.092976746549	1
2	5512	1785.390802705359	2
2	5513	1786.484818662544	1
2	5517	1787.316923536644	2
2	5518	1788.39674966636	1
2	5522	1788.65050768916	2
2	5524	1788.938791719105	3
2	5525	1789.702406521168	2
2	5528	1791.104877406571	1
2	5532	1791.152983026345	2
2	5533	1792.557957459081	1
2	5537	1792.659834405977	2
2	5539	1793.375380567522	3
2	5540	1793.783892559286	2
2	5545	1795.772261896755	1
2	5549	1796.031096543498	2
2	5551	1796.442325809892	3
2	5552	1797.727438765231	2
2	5556	1798.727450180449	3
2	5557	1799.218957073826	2
2	5561	1800.623159299987	3
2	5562	1800.729499870378	2
2	5565	1802.021822325166	1
2	5569	1802.143994396868	2
2	5571	1802.655466330004	3
2	5573	1803.434775288507	4
2	5574	1803.467169764477	3
2	5577	1805.00999159089	2
2	5580	1806.38254586647	1
2	5583	1807.590839560914	0
2	5590	1809.541685005872	1
2	5591	1810.61686562414	0
2	5597	1811.095535025517	1
2	5598	1812.435249113503	0
2	5602	1812.861870175334	1
2	5604	1813.66597274229	2
2	5605	1814.021223085026	1
2	5609	1815.0467626528	2
2	5611	1815.146800997937	3
2	5613	1815.354845057969	4
2	5614	1815.485066505174	3
2	5617	1817.128995942908	2
2	5621	1817.888915073026	3
2	5623	1818.162544775568	4
2	5624	1818.854765325251	3
2	5628	1819.284279920189	4
2	5630	1819.474691956563	5
2	5631	1820.736101645256	4
2	5635	1822.110083539519	5
2	5637	1822.547127641929	6
2	5638	1822.611059058669	5
2	5641	1823.932000750701	4
2	5645	1825.019034977598	5
2	5646	1825.636339332189	4
2	5650	1825.789869412433	5
2	5652	1826.003609094061	6
2	5654	1826.810217017547	7
2	5655	1827.053549093779	6
2	5659	1828.89690750732	7
2	5660	1828.946944572802	6
2	5664	1829.163828620331	7
2	5666	1829.876940366329	8
2	5668	1830.157429878112	9
2	5669	1830.869941358294	8
2	5673	1830.943767498021	9
2	5674	1832.267081838686	8
2	5678	1832.425878097236	9
2	5680	1832.433844391369	10
2	5681	1833.618907978598	9
2	5685	1834.80668196059	10
2	5686	1835.296952206109	9
2	5689	1836.649850524243	8
2	5693	1837.009379341703	9
2	5694	1838.521742299225	8
2	5698	1839.216877150166	9
2	5700	1839.321152961463	10
2	5702	1839.508338261461	11
2	5703	1839.741854353834	10
2	5707	1840.342260329715	11
2	5708	1841.340159258831	10
2	5712	1842.607843511041	11
2	5713	1842.656417907428	10
2	5717	1843.366736035379	11
2	5718	1844.061855696727	10
2	5722	1844.638160454604	11
2	5724	1845.12948077449	12
2	5725	1845.781812271316	11
2	5728	1847.315168152031	10
2	5731	1849.223443196182	9
2	5735	1849.605131994454	10
2	5736	1850.454032345516	9
2	5740	1850.506839081236	10
2	5742	1850.69619648257	11
2	5744	1851.528457226084	12
2	5745	1852.094578547803	11
2	5748	1853.590793251087	10
2	5752	1854.145300998614	11
2	5754	1854.474507590804	12
2	5755	1855.469067673412	11
2	5759	1855.872174295528	12
2	5760	1856.891536064659	11
2	5763	1858.729095412445	10
2	5767	1859.295915863867	11
2	5768	1860.683446149741	10
2	5773	1862.040236135785	9
2	5776	1863.840628509995	8
2	5779	1865.235787676115	7
2	5783	1865.246011606432	8
2	5784	1866.603862883363	7
2	5787	1868.157674418043	6
2	5791	1868.191743216393	7
2	5793	1868.239600953546	8
2	5795	1868.889085671447	9
2	5796	1869.618227525826	8
2	5799	1870.978423636991	7
2	5803	1871.765232386855	8
2	5805	1872.119824394825	9
2	5806	1872.181901561494	8
2	5812	1873.536460959076	9
2	5813	1874.132348627063	8
2	5817	1874.629339128018	9
2	5819	1875.094727411257	10
2	5820	1875.53940910271	9
2	5824	1875.987807075151	10
2	5826	1876.851519786363	11
2	5827	1877.074682587596	10
2	5830	1878.396586903209	9
2	5834	1878.596584293999	10
2	5836	1878.65776104046	11
2	5838	1879.009041129639	12
2	5839	1879.771049194435	11
2	5842	1881.30936621728	10
2	5846	1883.030351259423	11
2	5847	1883.150709832857	10
2	5850	1884.962187876391	9
2	5853	1886.658115902195	8
2	5857	1888.18174519989	9
2	5858	1888.316643277208	8
2	5861	1890.061729237276	7
2	5865	1890.339562501252	8
2	5867	1890.373287431261	9
2	5868	1891.384031234893	8
2	5872	1892.67037230337	9
2	5873	1893.163565078403	8
2	5877	1894.419492811622	9
2	5878	1894.5261146419	8
2	5882	1894.557663674841	9
2	5884	1894.685445080985	10
2	5885	1896.062328839513	9
2	5888	1897.322228364485	8
2	5892	1897.385355311542	9
2	5894	1897.540675579132	10
2	5896	1897.583313483772	11
2	5898	1897.849609022392	12
2	5902	1898.20439854783	13
2	5903	1898.779115423585	12
2	5907	1899.650339424786	13
2	5909	1899.897133065576	14
2	5910	1900.045162958118	13
2	5915	1901.341735901709	12
2	5919	1902.277430373436	13
2	5921	1902.342176056733	14
2	5922	1903.186834410417	13
2	5929	1904.679840794045	12
2	5933	1904.825097730324	13
2	5934	1906.662672483202	12
2	5938	1907.104174781119	13
2	5940	1907.193477302783	14
2	5942	1907.948799554704	15
2	5944	1908.180887679618	16
2	5945	1908.272834920537	15
2	5949	1908.313615162511	16
2	5950	1910.189393183615	15
2	5956	1910.713866371698	16
2	5957	1911.767731544401	15
2	5961	1911.768093852242	16
2	5962	1913.404726142834	15
2	5966	1914.929082584456	16
2	5967	1915.208537288967	15
2	5971	1915.966148077379	16
2	5974	1916.818943523641	15
2	5978	1916.955697556561	16
2	5980	1918.31198746908	17
2	5981	1918.804728362548	16
2	5985	1918.993390846752	17
2	5987	1919.533077614259	18
2	5988	1920.604140349316	17
2	5992	1920.66450648103	18
2	5994	1922.123366875139	19
2	5995	1922.372612280051	18
2	5998	1923.721160957242	17
2	6002	1924.409222686068	18
2	6003	1924.97298322993	17
2	6007	1925.354830128101	18
2	6009	1925.725175647751	19
2	6010	1926.903440470273	18
2	6014	1928.17095603877	19
2	6015	1928.344711992355	18
2	6018	1929.781141909236	17
2	6022	1930.136485979319	18
2	6023	1931.085501909839	17
2	6026	1932.646982117394	16
2	6030	1933.72299467767	17
2	6031	1934.270503403084	16
2	6034	1935.663968855539	15
2	6038	1936.361278099501	16
2	6040	1936.77177715	17
2	6041	1937.064829036617	16
2	6045	1938.250129264874	17
2	6047	1938.54904417529	18
2	6048	1938.836071044789	17
2	6052	1939.732188721685	18
2	6053	1940.569174763584	17
2	6056	1942.072081834102	16
2	6060	1942.787282041576	17
2	6061	1943.302784443857	16
2	6065	1944.418024960178	17
2	6066	1945.104475764768	16
2	6070	1946.220522723164	17
2	6071	1946.370970822336	16
2	6074	1947.671299796576	15
2	6077	1948.903480243149	14
2	6080	1950.762850076916	13
2	6083	1952.683690363379	12
2	6086	1954.104441821972	11
2	6090	1954.162418821444	12
2	6092	1955.038917812338	13
2	6093	1955.444794912474	12
2	6097	1957.11002305437	13
2	6099	1957.150306400707	14
2	6100	1957.329172877991	13
2	6103	1959.2532020394	12
2	6106	1960.885819963576	11
2	6109	1962.605896635378	10
2	6113	1963.402366231579	11
2	6115	1963.575391611685	12
2	6117	1964.38285709813	13
2	6118	1964.452065124387	12
2	6122	1964.904765270268	13
2	6123	1965.861014580565	12
2	6127	1966.336330433857	13
2	6128	1967.644528215589	12
2	6132	1969.501415005311	13
2	6133	1969.543093691232	12
2	6136	1971.38844831458	11
2	6140	1971.948779055212	12
2	6142	1972.802799009596	13
2	6143	1973.208128104943	12
2	6146	1975.174604712638	11
2	6150	1976.090232822306	12
2	6151	1977.165638990912	11
2	6155	1977.955572889596	12
2	6157	1978.368514059138	13
2	6158	1978.965611057009	12
2	6162	1979.964908116132	13
2	6164	1979.989134363717	14
2	6165	1980.190359507154	13
2	6168	1981.607394024196	12
2	6172	1981.881051625498	13
2	6173	1983.325781965653	12
2	6177	1983.64115414081	13
2	6179	1983.872133499904	14
2	6180	1984.761395345467	13
2	6183	1986.255472341019	12
2	6187	1986.269812562544	13
2	6188	1987.610137825671	12
2	6191	1989.17722434255	11
2	6194	1991.155623779285	10
2	6198	1991.61101755502	11
2	6199	1993.142902737322	10
2	6203	1994.250084760908	11
2	6204	1994.345197911213	10
2	6208	1995.34483859555	11
2	6210	1995.429049769241	12
2	6212	1996.153459496121	13
2	6213	1996.30031843784	12
2	6217	1996.43430685622	13
2	6218	1997.595169831465	12
2	6222	1997.92921201779	13
2	6223	1999.126122501518	12
2	6227	2000.451459918132	13
2	6228	2000.58721271998	12
2	6231	2002.168300330664	11
2	6235	2002.548958436641	12
2	6236	2003.459315328511	11
2	6240	2003.769355485283	12
2	6242	2004.094556751077	13
2	6243	2004.835621296825	12
2	6247	2005.197208849335	13
2	6248	2006.396994927364	12
2	6251	2007.613286457794	11
2	6254	2009.14695020991	10
2	6258	2009.344053937342	11
2	6260	2010.061525333373	12
2	6262	2010.140898044572	13
2	6263	2010.706712579006	12
2	6267	2010.978530261632	13
2	6269	2011.020115828111	14
2	6270	2011.986159578735	13
2	6274	2012.344163000319	14
2	6275	2013.975773569034	13
2	6278	2015.422517874302	12
2	6282	2015.754877710651	13
2	6284	2016.281933549149	14
2	6285	2016.921533475468	13
2	6289	2017.211805797328	14
2	6290	2018.755865128735	13
2	6293	2020.719921430783	12
2	6297	2021.45696017772	13
2	6299	2021.5829504561	14
2	6301	2021.982044829572	15
2	6302	2022.329250188382	14
2	6305	2024.300462057279	13
2	6308	2025.877202312113	12
2	6312	2026.043474411634	13
2	6314	2027.080099314635	14
2	6315	2027.460423141741	13
2	6318	2029.066996091814	12
2	6322	2029.704753370487	13
2	6323	2030.515183598944	12
2	6327	2030.85973955104	13
2	6329	2031.079697126588	14
2	6330	2031.801568985195	13
2	6334	2031.874851595675	14
2	6336	2032.541279579191	15
2	6337	2033.794489674294	14
2	6340	2035.215327654617	13
2	6343	2036.725742461184	12
2	6347	2037.287745752441	13
2	6348	2038.032024896169	12
2	6352	2039.152152284089	13
2	6353	2039.445673252294	12
2	6359	2039.990459993073	13
2	6360	2040.80438494424	12
2	6364	2041.556338494584	13
2	6366	2041.724197464276	14
2	6367	2042.350725350926	13
2	6371	2042.588365009469	14
2	6373	2042.686052621806	15
2	6374	2044.282468780713	14
2	6377	2046.057927725302	13
2	6381	2047.406393675828	14
2	6382	2047.442824961083	13
2	6386	2047.761197707415	14
2	6387	2049.160943164701	13
2	6390	2050.664803486901	12
2	6394	2052.100332041615	13
2	6395	2052.19509229439	12
2	6399	2052.202721142257	13
2	6401	2053.648747367242	14
2	6402	2053.682441175381	13
2	6406	2053.889943261919	14
2	6408	2054.845473615867	15
2	6409	2054.912911778527	14
2	6414	2056.544015141043	13
2	6418	2056.891457223774	14
2	6419	2057.954534023094	13
2	6423	2058.16190254428	14
2	6425	2059.04185255919	15
2	6427	2059.071603616872	16
2	6428	2059.371959337431	15
2	6431	2060.663159331518	14
2	6434	2062.281726601931	13
2	6438	2062.313104223007	14
2	6440	2062.916298853419	15
2	6441	2064.007856063756	14
2	6444	2065.881086301642	13
2	6448	2066.330404895953	14
2	6450	2066.857913643801	15
2	6451	2067.605832574355	14
2	6455	2068.475036904719	15
2	6456	2069.572203231628	14
2	6459	2071.484082653957	13
2	6463	2071.531293585738	14
2	6465	2072.048639147101	15
2	6467	2073.14369562682	16
2	6468	2073.215779207672	15
2	6472	2074.314608605735	16
2	6473	2074.902802467185	15
2	6477	2075.658194401292	16
2	6478	2076.82400299071	15
2	6481	2078.161398368167	14
2	6485	2078.628276553928	15
2	6486	2079.479391021678	14
2	6490	2079.749571485074	15
2	6492	2079.915830849368	16
2	6494	2079.964228453667	17
2	6496	2080.177938181924	18
2	6497	2081.262809927227	17
2	6501	2081.671993996214	18
2	6503	2081.775202248586	19
2	6504	2082.779483000213	18
2	6507	2084.394469564618	17
2	6510	2086.015955648967	16
2	6513	2087.658835853287	15
2	6517	2087.949142461782	16
2	6519	2088.758058847767	17
2	6520	2089.192950552166	16
2	6524	2089.416314992723	17
2	6525	2090.774510726914	16
2	6528	2092.757745334156	15
2	6532	2093.63768954448	16
2	6533	2094.742402968764	15
2	6537	2095.290074328825	16
2	6538	2096.099708899691	15
2	6542	2097.361935221004	16
2	6543	2097.583342649996	15
2	6547	2098.755275651949	16
2	6548	2098.93097859735	15
2	6551	2100.180346174188	14
2	6555	2100.533666618587	15
2	6557	2102.112902163059	16
2	6558	2102.161156363435	15
2	6562	2102.789167606742	16
2	6563	2103.652554939151	15
2	6568	2105.07699637527	14
2	6572	2105.557726188213	15
2	6573	2106.29156805633	14
2	6576	2107.567087945923	13
2	6580	2108.262503697465	14
2	6582	2109.14507619755	15
2	6583	2109.188302600592	14
2	6587	2109.454487477582	15
2	6589	2110.526197496886	16
2	6590	2111.157879025139	15
2	6593	2113.019217760511	14
2	6597	2113.069872183564	15
2	6599	2114.152907868937	16
2	6600	2114.262344744638	15
2	6604	2114.407795132465	16
2	6605	2116.01447510852	15
2	6609	2116.231820363696	16
2	6611	2116.833957445971	17
2	6612	2117.424858112843	16
2	6616	2117.475238797259	17
2	6617	2118.655349910096	16
2	6621	2118.675232676975	17
2	6622	2119.946100448095	16
2	6627	2121.204585540876	15
2	6631	2122.235942029529	16
2	6633	2122.665164054762	17
2	6634	2122.669597042561	16
2	6637	2123.873153696791	15
2	6641	2125.717981974938	16
2	6642	2125.857492430904	15
2	6645	2127.845400826656	14
2	6649	2128.4368922564	15
2	6650	2129.434073104919	14
2	6654	2130.407808556334	15
2	6655	2130.928805276402	14
2	6658	2132.7440942446	13
2	6662	2132.855585891013	14
2	6664	2133.239568827673	15
2	6665	2134.609475556784	14
2	6668	2135.885816474096	13
2	6672	2136.203634950191	14
2	6673	2137.164382700273	13
2	6677	2137.179179462276	14
2	6682	2138.815705960267	13
2	6686	2139.138520993668	14
2	6687	2140.717267531366	13
2	6691	2141.84148103108	14
2	6692	2142.463251910941	13
2	6695	2143.754382592463	12
2	6698	2145.31568026396	11
2	6702	2146.396484354977	12
2	6703	2146.855457042181	11
2	6707	2146.95942522711	12
2	6709	2147.202586736307	13
2	6710	2148.230638414272	12
2	6714	2148.515626673303	13
2	6715	2149.545058331848	12
2	6718	2151.064060026058	11
2	6722	2151.99362151765	12
2	6723	2152.671477240906	11
2	6727	2153.061197284807	12
2	6728	2154.058405794785	11
2	6732	2155.206550201985	12
2	6734	2155.765409294385	13
2	6735	2155.930834200256	12
2	6739	2156.223483825088	13
2	6740	2157.397340767481	12
2	6746	2158.350844407427	13
2	6747	2158.833506104559	12
2	6751	2159.991283436949	13
2	6752	2160.489502216339	12
2	6755	2161.918902876809	11
2	6759	2162.580277353942	12
2	6761	2163.349698070966	13
2	6762	2163.810060578607	12
2	6766	2165.123763934338	13
2	6767	2165.173098562121	12
2	6770	2166.606848133005	11
2	6773	2167.941137574635	10
2	6777	2169.332606745652	11
2	6778	2169.730572886973	10
2	6781	2171.145270018115	9
2	6785	2171.507723306535	10
2	6786	2172.817741462796	9
2	6789	2174.114504154048	8
2	6793	2174.559599333582	9
2	6794	2176.02720328348	8
2	6797	2177.77316557376	7
2	6801	2177.857517626098	8
2	6802	2179.3831763698	7
2	6806	2179.49490780648	8
2	6807	2180.818527522332	7
2	6810	2182.740369090832	6
2	6814	2182.885125871705	7
2	6816	2182.955690366776	8
2	6817	2184.019583194352	7
2	6821	2184.964201602433	8
2	6823	2185.35143586635	9
2	6824	2185.355046231508	8
2	6828	2186.18830590537	9
2	6829	2186.700625600688	8
2	6832	2187.933392419316	7
2	6835	2189.562346812919	6
2	6838	2191.432238071434	5
2	6841	2192.846340626873	4
2	6845	2192.908704751424	5
2	6847	2193.361654642494	6
2	6848	2194.299129494116	5
2	6852	2194.467800836449	6
2	6853	2196.147133813262	5
2	6857	2197.085217028596	6
2	6858	2198.007181095727	5
2	6862	2199.011827570799	6
2	6863	2199.351262655132	5
2	6867	2200.032230969578	6
2	6869	2200.173724950767	7
2	6872	2200.95685964229	6
2	6876	2201.445244815896	7
2	6877	2202.624477190547	6
2	6881	2203.086802041084	7
2	6883	2204.041140946979	8
2	6884	2204.238066401914	7
2	6888	2205.401350392992	8
2	6889	2205.513947897054	7
2	6893	2206.555324117628	8
2	6895	2206.852373634722	9
2	6896	2207.473897847555	8
2	6900	2207.578074082795	9
2	6901	2208.68113175372	8
2	6905	2209.700483764592	9
2	6906	2210.087248982511	8
2	6911	2211.535232036769	7
2	6915	2212.120972558653	8
2	6917	2212.293806137819	9
2	6919	2212.602216585688	10
2	6921	2213.285727811728	11
2	6922	2213.483758339308	10
2	6925	2214.990584280737	9
2	6928	2216.480673524946	8
2	6931	2218.236511712916	7
2	6934	2219.796640512369	6
2	6938	2220.465171049185	7
2	6939	2221.35691565892	6
2	6943	2221.981054729854	7
2	6944	2222.58132021392	6
2	6948	2222.917370879708	7
2	6949	2224.048765132038	6
2	6953	2224.883324874165	7
2	6955	2225.435346863937	8
2	6956	2225.958066204025	7
2	6959	2227.451046016088	6
2	6963	2227.603193856894	7
2	6965	2228.633372201626	8
2	6967	2228.819085883742	9
2	6968	2228.968027899435	8
2	6971	2230.246267331785	7
2	6975	2230.343713946777	8
2	6977	2230.379340354294	9
2	6978	2231.99750898706	8
2	6981	2233.931319237707	7
2	6985	2235.34374224862	8
2	6986	2235.696786197854	7
2	6990	2235.841250312416	8
2	6992	2236.770507198649	9
2	6993	2237.059155659957	8
2	6997	2237.529735665514	9
2	6999	2238.228123321009	10
2	7000	2238.728520978263	9
2	7004	2240.612882724707	10
2	7005	2240.698527410275	9
2	7009	2240.734440965837	10
2	7011	2241.347753231433	11
2	7012	2241.992523401252	10
2	7016	2242.037018369272	11
2	7017	2243.448900748252	10
2	7021	2244.951761387593	11
2	7022	2244.992728249005	10
2	7025	2246.562969253606	9
2	7028	2248.193992945201	8
2	7032	2249.759763059998	9
2	7034	2249.945373055294	10
2	7035	2250.081522174946	9
2	7039	2250.981305980344	10
2	7040	2251.930114945046	9
2	7044	2252.462185596715	10
2	7045	2253.582601190008	9
2	7048	2255.140096022956	8
2	7051	2256.349102363571	7
2	7055	2256.441900613995	8
2	7057	2257.141353376833	9
2	7058	2258.224867709562	8
2	7061	2260.220102573767	7
2	7064	2262.101133770704	6
2	7068	2263.129185245538	7
2	7070	2263.267223755247	8
2	7071	2263.648797236591	7
2	7075	2264.259713150493	8
2	7076	2264.939650411181	7
2	7080	2265.319405201159	8
2	7082	2265.325143902069	9
2	7083	2266.617034530848	8
2	7087	2267.097446818399	9
2	7089	2267.199094179416	10
2	7091	2267.344557724339	11
2	7092	2268.282305420398	10
2	7096	2269.208495978456	11
2	7097	2269.945439798593	10
2	7101	2270.051894018894	11
2	7102	2271.831014899931	10
2	7106	2272.668484623654	11
2	7107	2273.675943944066	10
2	7111	2274.650623986455	11
2	7112	2275.433055977545	10
2	7116	2275.639214504186	11
2	7118	2276.640093173345	12
2	7119	2277.410904121421	11
2	7123	2277.458173458112	12
2	7124	2278.767649195552	11
2	7127	2280.210931030683	10
2	7131	2281.733773764436	11
2	7132	2281.73815123944	10
2	7135	2283.308589077205	9
2	7138	2284.98750699351	8
2	7143	2286.933324445434	7
2	7147	2286.973805327938	8
2	7149	2287.989738415012	9
2	7150	2288.509416891098	8
2	7154	2288.545650266918	9
2	7155	2289.77605116649	8
2	7158	2291.601668945909	7
2	7161	2293.500576106295	6
2	7165	2293.929168165846	7
2	7167	2295.153321585876	8
2	7168	2295.298644318268	7
2	7172	2296.946037907913	8
2	7173	2296.981095053651	7
2	7177	2297.21600463879	8
2	7179	2297.334609128793	9
2	7181	2298.22119635131	10
2	7182	2298.894482273631	9
2	7186	2299.136198873228	10
2	7187	2300.691984834917	9
2	7190	2302.280905378819	8
2	7194	2303.143118182169	9
2	7195	2303.79624762407	8
2	7198	2305.272287626401	7
2	7202	2306.018729821175	8
2	7203	2307.259493148908	7
2	7208	2308.981028861016	6
2	7211	2310.70609812329	5
2	7215	2311.566862442678	6
2	7217	2311.997825648065	7
2	7218	2312.321886297711	6
2	7222	2312.727232809684	7
2	7223	2313.679144359217	6
2	7227	2314.999023781205	7
2	7228	2315.349497169652	6
2	7232	2316.032993808285	7
2	7233	2316.91285745746	6
2	7237	2317.772263552944	7
2	7238	2318.799154239916	6
2	7242	2319.599526890887	7
2	7243	2320.724528384791	6
2	7246	2322.010608077073	5
2	7250	2322.060363169052	6
2	7252	2322.521346847388	7
2	7253	2323.337879670063	6
2	7257	2324.482587727608	7
2	7259	2324.648473031535	8
2	7260	2325.239397986444	7
2	7264	2325.861318135	8
2	7265	2326.960792249652	7
2	7269	2327.258788179343	8
2	7271	2328.164739372929	9
2	7272	2328.627290417465	8
2	7276	2328.689098748084	9
2	7278	2329.068260756621	10
2	7279	2329.951660328197	9
2	7283	2330.280302162513	10
2	7284	2331.363396117675	9
2	7289	2332.644519755083	8
2	7293	2332.788771023177	9
2	7295	2333.819837417351	10
2	7296	2334.587177275705	9
2	7300	2335.000725890021	10
2	7301	2335.821367248545	9
2	7304	2337.222116385239	8
2	7307	2339.072227457004	7
2	7311	2340.092625989533	8
2	7312	2340.747817769671	7
2	7315	2342.515466619866	6
2	7319	2343.284819025255	7
2	7320	2343.824945610041	6
2	7324	2343.884795535048	7
2	7326	2345.056839149672	8
2	7327	2345.097511061119	7
2	7331	2345.562591825726	8
2	7332	2346.348862328591	7
2	7338	2348.093503291629	8
2	7339	2348.23680749091	7
2	7343	2348.782539255497	8
2	7345	2349.229452523909	9
2	7346	2349.593509055513	8
2	7350	2349.936524433353	9
2	7351	2351.152224191862	8
2	7354	2352.43747346292	7
2	7358	2353.641553613239	8
2	7359	2354.011861024264	7
2	7362	2355.94586931302	6
2	7366	2356.030530322209	7
2	7368	2356.235830618909	8
2	7369	2357.601939729813	7
2	7373	2357.63309534433	8
2	7375	2357.664195197052	9
2	7377	2357.67589145121	10
2	7379	2358.762359970754	11
2	7380	2359.562528374072	10
2	7384	2359.764464403338	11
2	7385	2360.949259443234	10
2	7388	2362.359527798581	9
2	7391	2363.686300722535	8
2	7395	2363.998375596206	9
2	7397	2365.619533476068	10
2	7398	2365.682849564056	9
2	7402	2366.819631739474	10
2	7405	2367.332020295995	9
2	7409	2368.37947165393	10
2	7410	2368.827926887783	9
2	7414	2368.929223256184	10
2	7416	2369.84231001374	11
2	7418	2370.344643884513	12
2	7419	2370.386591609406	11
2	7423	2370.750126104223	12
2	7424	2371.897624222959	11
2	7428	2372.694921535165	12
2	7430	2372.726484986979	13
2	7431	2373.827391674022	12
2	7435	2375.062161523468	13
2	7436	2375.475864865097	12
2	7440	2376.801768446394	13
2	7442	2377.016589221299	14
2	7443	2377.247005092378	13
2	7447	2377.794747639797	14
2	7448	2378.833341693717	13
2	7452	2378.88483751445	14
2	7453	2380.179506090122	13
2	7457	2380.287681175701	14
2	7458	2382.042151250529	13
2	7462	2382.619167618358	14
2	7463	2383.303421498115	13
2	7467	2383.942087971545	14
2	7468	2384.587347998123	13
2	7471	2385.877269195977	12
2	7475	2386.347756682411	13
2	7476	2387.187864423941	12
2	7480	2387.988625740233	13
2	7481	2388.702117869656	12
2	7484	2390.326272178839	11
2	7488	2390.702180785065	12
2	7490	2390.976135773918	13
2	7491	2391.625536184411	12
2	7494	2393.339132432851	11
2	7497	2395.305900092634	10
2	7501	2395.82042766163	11
2	7503	2395.954340419274	12
2	7505	2396.145444834297	13
2	7507	2396.960223571677	14
2	7508	2396.999925361226	13
2	7511	2398.389783831711	12
2	7515	2399.067387807817	13
2	7517	2399.880616008986	14
2	7518	2400.334318743299	13
2	7521	2402.010831994589	12
2	7525	2403.267516341182	13
2	7526	2403.718306702215	12
2	7530	2404.267199632976	13
2	7531	2405.229210299652	12
2	7535	2405.675836202698	13
2	7536	2407.137124261472	12
2	7540	2408.130673750234	13
2	7541	2408.505228765707	12
2	7545	2409.384393125555	13
2	7546	2409.990041525315	12
2	7549	2411.790035736959	11
2	7553	2411.955841470406	12
2	7555	2412.748306352475	13
2	7556	2413.132403798613	12
2	7559	2414.542148558635	11
2	7563	2415.852513778736	12
2	7564	2415.997930045452	11
2	7567	2417.681875714127	10
2	7571	2417.790787581466	11
2	7573	2419.427369994972	12
2	7574	2419.597741470326	11
2	7578	2419.826653861587	12
2	7580	2419.88122283139	13
2	7582	2420.189815527739	14
2	7583	2421.020942068685	13
2	7586	2422.642753779914	12
2	7590	2422.750605886877	13
2	7592	2422.909659488733	14
2	7594	2423.886603353347	15
2	7595	2424.370281110171	14
2	7599	2425.819160045284	15
2	7600	2426.036609836694	14
2	7604	2426.084859850044	15
2	7605	2427.721546580855	14
2	7608	2429.04352515268	13
2	7611	2430.793359992121	12
2	7615	2430.952161990277	13
2	7617	2431.499746567095	14
2	7619	2432.270476580778	15
2	7620	2432.466881846104	14
2	7624	2433.107213643659	15
2	7626	2433.25020926381	16
2	7628	2433.827739227402	17
2	7629	2434.341046945218	16
[...]
5	83959	26238.955063450185	1830.835749894
5	84017	26253.788901739604	275.45240456247
5	84024	26255.585181687436	1358.3743992777
5	84095	26277.385556740536	559.78177464918
5	84105	26280.449189612678	854.05036011582
5	84115	26284.186935062556	1367.1297785474
5	84169	26301.007804883679	1375.8841378541
5	84190	26305.574055644718	1608.4515637254
5	84205	26310.199002841149	1132.8325666176
5	84228	26318.224713083203	1378.086868313
5	84233	26320.135715543139	1379.6863294133
5	84278	26338.683166894909	568.05603828007
5	84324	26351.576117529939	1866.0567832429
5	84338	26355.05168841708	567.71210716206
5	84363	26363.131229081039	1133.3485111565
5	84396	26371.941726615872	854.50331848782
5	84406	26375.493220964852	568.48740267659
5	84421	26380.317944430593	1146.9127595654
5	84443	26386.759749756228	2792.3582330346
5	84490	26402.421942467275	274.40241733105
5	84511	26410.978546591322	554.8364398534
5	84537	26417.426809906993	4142.4163963552
5	84545	26420.429962672699	557.31536968195
5	84565	26427.196808695081	1392.9790392412
5	84600	26438.088503049347	264.82021354094
5	84620	26445.138788111355	2097.990292285
5	84640	26451.492913349752	267.09226804023
5	84648	26454.074088285711	2572.8816866472
5	84653	26455.995241118443	1131.225366543
5	84665	26458.583610786904	1631.6910536531
5	84721	26475.825434919295	831.27227323434
5	84738	26480.578517317994	1382.8295527506
5	84748	26484.163672463632	1383.6821489907
5	84794	26496.662712082303	254.99200034499
5	84801	26498.163547691925	254.96837962898
5	84806	26499.752774876765	825.16074237053
5	84809	26501.343142591453	538.07824495639
5	84814	26502.608849298245	1846.5736158169
5	84817	26504.45670208562	1845.1605810148
5	84866	26522.618106170778	1383.6232851343
5	84876	26525.728038395417	819.28905946652
5	84962	26551.792159934003	541.87578319735
5	84992	26561.722364763017	264.57659619301
5	84995	26563.303034829009	263.99286504859
5	85017	26570.057636677693	267.59655877909
5	85028	26571.861121565882	1648.4922721277
5	85053	26579.876759834808	1645.8869744505
5	85100	26594.430006234754	549.66363829875
5	85145	26608.291295179387	260.63180326698
5	85168	26615.789706143398	1653.8301228789
5	85196	26625.799897882189	263.55674887425
5	85227	26633.290484036166	834.34149555372
5	85237	26636.487246525135	266.63995653665
5	85279	26648.339600077492	832.34383417873
5	85362	26671.882975007627	827.10058628425
5	85422	26687.816842865605	538.25404374411
5	85460	26700.818678203631	266.65544030697
5	85473	26705.435634757612	1893.4885719538
5	85493	26711.226241546716	817.24204498976
5	85496	26712.872504913095	1893.1500213161
5	85556	26731.951965310457	807.02307824622
5	85597	26743.82669757198	264.63667757949
5	85600	26745.104686464401	533.33667342676
5	85610	26748.000293115745	1382.0848679159
5	85630	26754.113201881606	262.45181249798
5	85635	26755.508815651048	1099.7243400647
5	85685	26772.204824126173	520.66766774941
5	85743	26792.658345853012	525.83388250437
5	85768	26800.363633359071	2841.9598787178
5	85790	26806.387567203898	810.70885440189
5	85813	26814.326943406683	261.93690565916
5	85852	26825.404780391825	1665.4765001352
5	85855	26827.342217510601	532.65524746713
5	85858	26828.870642530767	532.01641135462
5	85876	26834.841280673294	532.61588917058
5	85885	26839.216382248922	1103.0894648114
5	85916	26848.122475619092	1099.9649848141
5	85946	26858.532487455607	1916.621999004
5	85956	26862.233215056398	1673.5544547165
5	85981	26871.126325874069	1104.4629153259
5	86011	26879.260976987185	1672.1215782209
5	86038	26887.46201063119	1102.0166521259
5	86041	26889.376882815958	7859.3197244359
5	86072	26899.880788004437	1668.4651524417
5	86084	26903.321351484807	263.38756404403
5	86099	26908.933112472893	1103.4762300472
5	86122	26913.664295477085	2182.7516243153
5	86130	26916.677900501751	533.46477293742
5	86200	26939.964425628299	542.09594391396
5	86205	26941.839160958717	542.86098560708
5	86228	26949.821205655711	545.72219915382
5	86231	26951.268358005995	1681.9635343964
5	86236	26952.721678667368	278.16903340598
5	86239	26954.138231018038	278.48422526143
5	86276	26965.616646840274	1107.0751066602
5	86282	26968.7824583745	820.60064906302
5	86298	26975.509749101884	546.96918814857
5	86315	26980.421922129615	1933.0824886439
5	86330	26985.564355542362	544.59520570302
5	86360	26994.148254089468	537.58638273833
5	86363	26995.890844542012	271.69070526956
5	86372	26997.529011958316	540.15475897729
5	86382	27000.60488674067	805.35494769857
5	86440	27016.962797665634	541.3751580831
5	86446	27019.547251968497	1089.1481999309
5	86483	27031.097203085982	4008.1576876993
5	86486	27032.523301517443	270.76144443446
5	86517	27044.083159612344	1075.1935066139
5	86536	27049.204930283354	1646.0834960064
5	86555	27054.157005823814	797.31035728193
5	86573	27060.545918246954	2396.0735548725
5	86581	27063.766465231441	267.87993685505
5	86584	27065.066056680903	1649.2773773237
5	86665	27092.717838145085	529.3331398285
5	86686	27096.922449585832	799.79678808559
5	86711	27105.02719424799	2884.0269199006
5	86729	27110.799963491446	1646.5064850282
5	86769	27123.362193981036	1079.0415126868
5	86784	27128.181967871859	3120.7892976935
5	86799	27133.553040318786	526.5771428414
5	86836	27144.290424855462	1363.7405697264
5	86848	27147.133552134259	792.79706026547
5	86858	27150.148560821114	256.61330772852
5	86927	27174.555507035774	795.75427046557
5	86945	27181.174202265438	2205.0373771493
5	87003	27197.81979511514	533.61207486595
5	87019	27201.439776272547	6817.3406494065
5	87061	27218.179523284021	805.50884688707
5	87098	27228.949973784047	4247.635327614
5	87110	27232.140791189144	2437.3858352479
5	87139	27239.754539414155	251.27526934704
5	87147	27243.184471281464	3133.9551172446
5	87150	27244.519016043315	1923.8129530409
5	87192	27258.491773017342	797.35784218084
5	87197	27259.953374324958	253.81974535268
5	87200	27261.301896441202	254.29242836902
5	87222	27266.411873603645	1339.9996954224
5	87239	27271.372598023559	256.12173503317
5	87324	27299.187375703673	251.79521470999
5	87329	27301.076288543488	798.62992278282
5	87346	27306.420470996421	1905.613446097
5	87361	27312.301459031958	1903.1578393108
5	87367	27315.228481852855	2416.1085531321
5	87409	27327.856027764301	787.87913450965
5	87412	27329.278026553276	1906.4277106141
5	87415	27330.825487392428	2651.4765840473
5	87445	27340.56165912136	2658.5992881056
5	87450	27342.201771064881	2423.7549011864
5	87542	27368.245955935339	1901.7621058566
5	87554	27371.561194387483	1053.0306772448
5	87557	27373.183386825989	1902.1899430241
5	87560	27374.513147082212	518.45379535536
5	87589	27382.610324763539	783.32736317733
5	87612	27390.921796227279	2444.4967612721
5	87646	27400.69066009469	2684.6119580236
5	87669	27409.130151245218	510.26381609191
5	87733	27431.486741705085	1618.6700854345
5	87763	27438.003791010784	783.27379384485
5	87781	27444.970427852528	785.87997120885
5	87794	27450.363706726054	1904.0484340647
5	87894	27484.028040691126	1619.609825996
5	87906	27486.707012993131	254.04168392442
5	87911	27488.207207993824	255.0474176306
5	87924	27492.830593846772	4970.4783464077
5	87975	27511.044452496094	1320.7531976809
5	87987	27514.225572122668	251.51485222849
5	88035	27529.734602448563	253.32145201451
5	88054	27537.610931378264	1886.1585957104
5	88061	27539.231798744049	251.36744353769
5	88064	27540.467808544483	1595.8888145113
5	88079	27544.713914723914	251.00730894017
5	88082	27546.291637330722	1597.4667428054
5	88215	27588.635876306925	1310.486682727
5	88233	27594.662118531239	249.20096268365
5	88236	27596.65129143804	251.04701131222
5	88246	27599.869123342481	2162.1798732838
5	88266	27606.340091005001	1594.8503871843
5	88300	27616.000217421758	514.81555808809
5	88371	27640.108145204592	2696.4144298013
5	88407	27649.228309903326	257.6324542778
5	88465	27665.920171937565	514.79823758218
5	88475	27669.248459483902	770.18524922944
5	88551	27688.231972935827	1316.7566587332
5	88554	27689.800364193724	253.93976311193
5	88567	27695.170916823515	512.22645822783
5	88653	27722.027172927591	1049.3743306248
5	88660	27723.603777099992	1881.6351054823
5	88668	27727.076153345066	507.06629932757
5	88685	27732.100157699394	255.91158051839
5	88781	27761.582741009849	509.36591813078
5	88799	27767.530611900086	2692.3495259489
5	88818	27772.913235186818	4543.6262410685
5	88823	27774.39300841413	505.13411053405
5	88828	27776.347580064866	1035.2451341803
5	88866	27789.205405880171	1297.6687537794
5	88920	27801.774619131382	2408.1210083468
5	88925	27803.711321522515	2673.5899032138
5	88930	27805.06067989416	500.65207027109
5	88970	27817.519269595142	1283.3078135376
5	89012	27829.692187250067	245.40687143617
5	89026	27833.4405681508	1555.6112920258
5	89029	27834.660483247634	247.79358083604
5	89035	27837.595732511427	1024.1159467162
5	89043	27840.914338163506	1840.3094348024
5	89077	27849.990638751757	4094.489348006
5	89093	27856.979065257345	2696.4525666142
5	89133	27866.821818792482	1562.0267673025
5	89146	27871.224203328637	1292.2835489413
5	89214	27889.2381815771	1299.4202325692
5	89224	27892.558651855065	1033.7821515194
5	89227	27894.248544520734	245.07385948441
5	89262	27905.549440448394	768.43710760387
5	89287	27914.286968917434	248.81688604757
5	89325	27926.379941455308	2135.6923226712
5	89349	27933.115853887084	1300.9485028583
5	89391	27945.601382827047	2142.5053522176
5	89415	27954.389014307629	1850.467202153
5	89438	27962.473657556843	764.99906668967
5	89457	27967.267192891832	255.60517027192
5	89507	27984.560938604025	1849.9172789317
5	89523	27987.999040442181	1030.3077570824
5	89532	27993.091950877977	2140.3466001529
5	89553	28000.625822629256	522.35629974122
5	89594	28011.267555953598	260.03805086531
5	89613	28016.612945427596	262.60117230006
5	89650	28027.379360400363	263.04445872968
5	89660	28030.47249886956	7330.009147665
5	89663	28031.687659722231	1303.7048291094
5	89671	28034.307726156003	262.62981620373
5	89696	28042.616200182623	260.4680511511
5	89734	28056.020677062532	3898.7034430059
5	89767	28067.008489315432	268.63530088382
5	89831	28086.377531976473	1561.392500646
5	89996	28131.70245749097	776.85114596421
5	90009	28136.20217399228	271.60580591268
5	90044	28147.358045077357	1304.0521865736
5	90056	28150.613946456682	518.5282165115
5	90086	28160.266954101283	521.59697063968
5	90130	28173.068618784321	791.34399582799
5	90140	28176.342482756486	3463.2418639779
5	90184	28190.151244348696	793.9316970928
5	90205	28195.087043600565	1048.7358477754
5	90219	28198.680184629409	4175.8374769184
5	90344	28234.757895046509	1859.3893120707
5	90451	28263.737598640693	277.10930404259
5	90545	28290.878291640837	3252.3725773496
5	90550	28292.339214324985	1311.4483652268
5	90595	28306.041651474717	543.02150996552
5	90610	28310.788313575122	2966.8895452793
5	90615	28312.424336179565	538.67481539434
5	90652	28324.0832271729	536.72397221726
5	90663	28325.852813335542	275.0316600554
5	90670	28327.079946846735	4856.3400940592
5	90685	28331.808733683672	788.27345902883
5	90708	28340.62380740739	544.77764659832
5	90729	28345.90906160533	545.90187348661
5	90751	28355.497658140991	792.60774780304
5	90758	28357.491284922172	1052.5769185246
5	90770	28360.502194252458	2105.4472616683
5	90780	28363.473948018287	275.46784143721
5	90795	28368.268550748225	2385.2345242086
5	90829	28378.880998062563	553.16341247737
5	90857	28387.629517070798	1583.8724921751
5	90875	28393.37521821711	2385.6203753527
5	90880	28394.594052652491	797.60847597677
5	90883	28396.583963755553	1302.6616271881
5	90898	28401.454846708139	281.47541229234
5	90915	28406.464418349823	1583.5633815604
5	90938	28414.021373095771	555.50510161767
5	90943	28415.384088758414	1061.1407897582
5	90982	28426.151694336568	1068.2231577831
5	90995	28431.29281299397	1855.1781431611
5	91015	28437.160894389856	278.41036746184
5	91052	28450.537210666608	283.90669647926
5	91141	28474.876818088476	287.39205597227
5	91160	28482.768126257916	290.51888299594
5	91180	28488.72727015618	290.99833532456
5	91190	28492.649076561478	292.18455158873
5	91256	28512.588121797738	578.88502986224
5	91293	28524.711681352032	296.24833787696
5	91321	28534.475205711683	1894.6672694216
5	91334	28539.204216953403	303.6028448549
5	91360	28548.111244120673	2156.0308014664
5	91384	28554.656149427259	304.94772171248
5	91394	28557.943450486512	2435.6900214889
5	91419	28565.472982812339	1619.8714001798
5	91426	28567.430536642151	2442.7323942457
5	91436	28570.716847739967	850.00503849248
5	91470	28579.659375206048	849.24128660367
5	91478	28583.013670782971	852.50717276709
5	91509	28593.588970869261	1911.5827119439
5	91527	28599.982777985599	4291.0293542127
5	91542	28604.886009686109	4054.2444797968
5	91554	28608.31374552105	318.50090325757
5	91565	28610.013953364495	2183.4404712395
5	91593	28619.245680354204	317.97606069197
5	91616	28627.526439910609	1630.4434615227
5	91675	28645.129369067068	319.94806411324
5	91764	28671.064682345875	327.4094743715
5	91769	28672.652309868336	328.82874186757
5	91779	28675.663678635135	1634.3164187488
5	91821	28688.101443764047	599.53976315345
5	91826	28689.400453341418	1119.4777347872
5	91885	28707.176417478213	2170.35039105
5	91907	28713.713433630431	1909.771913654
5	91915	28717.226665935704	1378.0428992699
5	92046	28753.053188862505	1650.7766067511
5	92059	28758.105141049664	1643.5246986418
5	92067	28761.324631897587	1392.8631316448
5	92094	28768.773877002898	1127.4488729234
5	92109	28773.91913339928	1396.5966474438
5	92129	28780.865941888692	1400.2898452119
5	92139	28783.610111646952	1399.3877924517
5	92178	28795.132351797857	1135.9459495006
5	92222	28807.582648826057	3322.2306104452
5	92225	28809.231012725683	615.00774458166
5	92274	28824.802807660442	1410.052160062
5	92321	28839.208093046624	1159.1149173238
5	92354	28847.095390186686	617.1361567256
5	92374	28853.361742455925	1167.3951441414
5	92385	28858.305728291574	319.09424265058
5	92429	28871.683988725806	8506.7448971029
5	92441	28874.749770952801	908.28686160081
5	92463	28881.310260907601	1681.2560529068
5	92493	28891.456426968839	633.9806672026
5	92503	28894.944556675334	632.44566555129
5	92506	28896.256515074935	1173.0722985265
5	92511	28898.03115993407	1688.1108392552
5	92519	28901.256235906336	1173.7150872511
5	92538	28906.433519494201	1430.0169916493
5	92554	28913.188070591579	1176.337059864
5	92582	28922.192214327905	3647.9234540109
5	92604	28929.043591732759	635.4150076486
5	92644	28941.277243017819	3041.4997915982
5	92649	28942.628077104543	314.0938673376
5	92652	28944.342847403739	638.2457827845
5	92663	28948.847614950542	632.15044714256
5	92675	28951.861831794162	1687.2130107306
5	92688	28956.954378929589	916.80673298123
5	92772	28983.52959817447	1188.4426606521
5	92811	28991.252705125178	319.37823317066
5	92845	29001.315603492822	1191.7288917478
5	92872	29009.036529129226	320.35197424633
5	92901	29017.185546498041	320.23124207659
5	92914	29021.368775215599	644.08835003942
5	92932	29027.766888218414	3037.1659564914
5	92960	29038.575872711321	321.18945653937
5	92995	29050.894789446001	325.36335542113
5	93004	29052.364351732326	648.22032336276
5	93034	29061.597755094846	1453.5890180696
5	93042	29064.414981867415	1202.7753896882
5	93052	29067.739082758543	935.59543171091
5	93055	29069.045828707931	1206.6315689026
5	93120	29090.427855569165	1214.2416732499
5	93174	29106.304350915405	646.24927011422
5	93226	29125.198289548831	331.76026653801
5	93240	29127.87315009203	3645.8080570051
5	93282	29140.458003833743	1230.8621972979
5	93294	29143.125950867722	332.19404833485
5	93297	29144.508721799256	2263.8432824639
5	93300	29145.749809949139	2792.6484084199
5	93334	29155.743907042446	335.02454264816
5	93347	29160.632849998252	334.57902100887
5	93365	29164.424836705664	1233.8046156155
5	93368	29166.255483931156	658.20910877598
5	93395	29173.106011500621	1493.5599323606
5	93398	29174.358449056225	335.09963455236
5	93438	29187.570382815266	1243.7891278363
5	93459	29192.216454622561	339.07066800779
5	93491	29202.506836066806	2282.5933104233
5	93494	29204.366879468822	653.02096333501
5	93616	29243.82224537883	335.50293555855
5	93638	29250.445761179776	1244.7868866546
5	93643	29252.405129119047	650.3417793958
5	93656	29257.607109418363	972.5530040606
5	93664	29260.85596552644	651.83678027785
5	93737	29285.736014820302	329.30482166514
5	93744	29287.68490445804	649.54030142409
5	93749	29288.986032165439	971.63166101669
5	93854	29320.105574912615	333.58494409362
5	93859	29322.050886418894	335.16279587138
5	93877	29328.665090397783	987.86024068293
5	93885	29332.19403805662	1535.6322877318
5	93888	29333.658106735573	659.89311686189
5	93898	29336.690010554754	655.96857392998
5	93901	29338.247480350771	339.70051543487
5	93940	29352.256620026605	1265.7933808712
5	93966	29361.351622343475	1260.9109773736
5	93971	29363.109143596927	986.83925044399
5	93978	29364.946160603913	664.52916124015
5	93981	29366.392539155337	988.51634270496
5	93984	29367.68092313953	1542.9646791812
5	94058	29390.876977222453	1270.6152755192
5	94065	29392.564803960773	986.09580355089
5	94127	29410.132495353036	335.35958443484
5	94170	29422.160143458881	669.27376216918
5	94201	29434.321420957371	337.04759391078
5	94226	29441.715541423708	2315.8342390589
5	94234	29444.19502937518	336.78196985604
5	94302	29466.560870167277	1562.5918970501
5	94380	29488.686379520072	675.15982661848
5	94415	29499.828567338212	336.71843868093
5	94426	29504.963102005085	340.66821696481
5	94459	29513.060221618636	1002.0877526588
5	94482	29521.499970001578	340.06161572486
5	94502	29528.225294502489	340.39535822585
5	94531	29536.911133397966	1851.1022881108
5	94534	29538.275790707804	1303.482926273
5	94542	29541.693904508874	1305.3920012384
5	94547	29543.376010289639	343.34270939674
5	94578	29554.46727136936	1000.1968201035
5	94637	29572.939425590485	1006.9068492527
5	94640	29574.582311300039	1005.6292225034
5	94650	29577.722831937149	1591.5530357073
5	94655	29579.450017373115	677.86228099552
5	94728	29601.573761347718	1313.1809051155
5	94766	29614.677162145116	1591.1838744676
5	94809	29628.851538917087	2630.7130305388
5	94861	29645.0315452943	1318.8918993379
5	94886	29653.54745253086	342.10960756149
5	94891	29655.527207791097	1326.337936448
5	94898	29657.062729083411	5281.2709385273
5	94901	29658.478327686563	997.03767059384
5	95090	29713.787434866688	1313.8087987855
5	95120	29724.316651042773	331.77185411933
5	95148	29733.565769648774	2126.2359157581
5	95170	29739.884213589355	998.93925058613
5	95187	29745.501840709187	1607.3898840098
5	95194	29746.817975022867	334.27634706136
5	95223	29754.550911758504	1004.2980759378
5	95231	29757.759848480149	337.73959348968
5	95249	29764.045105504653	674.01312713636
5	95286	29774.73559109237	1008.0278678035
5	95296	29777.932955022193	1613.4751929082
5	95343	29792.235136633218	2656.4410799596
5	95367	29798.265606011488	1328.8946952202
5	95370	29799.961020603069	1007.1989281797
5	95375	29801.721565404014	1008.6005032959
5	95383	29804.649692525753	1618.843597702
5	95424	29819.001853352264	671.11197154551
5	95443	29824.276344358586	1632.6246671111
5	95478	29836.698573791274	2938.5139507843
5	95520	29848.72085253805	1339.8649728251
5	95584	29868.906230492368	682.44702384066
5	95604	29875.328558860756	4076.87108177
5	95614	29878.686502380706	2190.9206872136
5	95629	29883.393900202251	2190.9647131563
5	95641	29886.613264550677	6953.6781323718
5	95692	29905.235490442475	1021.9513902343
5	95704	29908.336483578047	2969.2525233159
5	95714	29911.327305499872	3241.3757418583
5	95724	29914.895548985375	336.77281792219
5	95734	29917.860317342019	1648.2878265281
5	95740	29921.153559877573	1649.6945002932
5	95799	29939.125511271171	338.91387682243
5	95862	29955.16693984963	2961.6716121611
5	95911	29970.741395847908	1928.9462507697
5	96009	29998.466972461939	4612.8064602147
6	27	26.522826002382	5.108679935542
6	356	155.444683213276	24.794133661775
6	478	194.285809009079	114.13326528103
6	491	198.875122357089	102.31813118533
6	542	215.225052692641	80.526924514986
6	799	300.147533616262	137.02633346981
6	851	317.950027014153	49.440820776001
6	1164	416.841676318486	110.17111790896
6	1179	421.402933877919	57.986878284865

