version 2
run Third_exit_5-3-20191114-11:42:54-9006
attr configname Third_exit_5
attr datetime 20191114-11:42:54
attr experiment Third_exit_5
attr inifile omnetpp.ini
attr iterationvars ""
attr iterationvarsf ""
attr measurement ""
attr network ResponseTimeNetwork
attr processid 9006
attr repetition 3
attr replication #3
attr resultdir results
attr runnumber 3
attr seedset 3
param **.Source.interArrivalTime exponential(6s)
param **.jobPriority bernoulli(0.8)
param **.PS.serviceTimeU1 "uniform(1.2s, 2.0s)"
param **.PS.serviceTimeU2 "uniform(2.4s, 2.8s)"
param **.SS1.serviceTime exponential(1.4s)
param **.SS2.serviceTime exponential(2s)
param **.PS.exitProbability bernoulli(0.5)

vector 0 ResponseTimeNetwork.SS1 queueLength:vector ETV
attr interpolationmode sample-hold
attr title "queue length, vector"
vector 1 ResponseTimeNetwork.sink lifeTimeU1:vector ETV
attr interpolationmode none
attr title "lifetime of arrived jobs U1, vector"
attr unit s
vector 2 ResponseTimeNetwork.sink totalServiceTimeU1:vector ETV
attr interpolationmode none
attr title "the total time spent  by arrived jobs U1, vector"
attr unit s
vector 3 ResponseTimeNetwork.sink lifeTime:vector ETV
attr interpolationmode none
attr title "lifetime of arrived jobs, vector"
attr unit s
vector 4 ResponseTimeNetwork.sink totalServiceTime:vector ETV
attr interpolationmode none
attr title "the total time spent  by arrived jobs, vector"
attr unit s
vector 5 ResponseTimeNetwork.QueueU1 queueLength:vector ETV
attr interpolationmode sample-hold
attr title "queue length, vector"
vector 6 ResponseTimeNetwork.sink lifeTimeU2:vector ETV
attr interpolationmode none
attr title "lifetime of arrived jobs U2, vector"
attr unit s
vector 7 ResponseTimeNetwork.sink totalServiceTimeU2:vector ETV
attr interpolationmode none
attr title "the total time spent  by arrived jobs U2, vector"
attr unit s
vector 8 ResponseTimeNetwork.QueueU2 queueLength:vector ETV
attr interpolationmode sample-hold
attr title "queue length, vector"
vector 9 ResponseTimeNetwork.SS2 queueLength:vector ETV
attr interpolationmode sample-hold
attr title "queue length, vector"
0	17391	10000.387919805239	0
0	17585	10101.433225403086	1
0	17586	10102.572204677627	0
0	17697	10170.129792491965	1
0	17699	10170.710489184666	0
0	17710	10175.50248208946	1
0	17714	10176.670504743042	0
0	18072	10423.344781409429	1
0	18075	10424.761331286879	2
0	18076	10425.923180383369	1
0	18081	10429.673931688023	0
0	18199	10468.677057649856	1
0	18202	10469.895356288282	2
0	18206	10471.575095666551	1
0	18211	10472.051410206699	0
0	18214	10473.487486996294	1
0	18216	10473.819311406998	0
0	18219	10474.988537379705	1
0	18223	10475.507146052537	0
0	18226	10476.758262157977	1
0	18228	10477.008764653989	0
0	18432	10590.921317537055	1
0	18434	10591.052190704716	0
0	18625	10696.265094464642	1
0	18629	10697.856537537739	0
0	18675	10712.608987662156	1
0	18676	10715.415247839168	0
0	18730	10733.892724050805	1
0	18731	10734.55249259225	0
0	18755	10745.93310841446	1
0	18756	10747.15865866932	0
0	18767	10750.155855851797	1
0	18771	10750.898790095106	0
0	18779	10753.018606889052	1
0	18781	10753.120229290962	0
0	18955	10883.287502029209	1
0	18956	10883.932372818552	0
0	19074	10937.70275697517	1
0	19076	10937.72959182502	0
0	19120	10954.810468937596	1
0	19124	10956.446286800223	0
0	19127	10957.025048558284	1
0	19135	10960.500333288182	2
0	19136	10960.791670760108	1
0	19139	10961.075825310255	0
0	19152	10965.289191182671	1
0	19156	10966.778065930523	0
0	19164	10968.499074241114	1
0	19166	10969.903769397551	0
0	19171	10970.201705169273	1
0	19173	10970.692493778482	0
0	19176	10971.513774655541	1
0	19181	10973.653215110376	0
0	19280	11042.89296549193	1
0	19281	11045.107122265257	0
0	19315	11086.78783091972	1
0	19316	11090.010926768378	0
0	19504	11263.903648136211	1
0	19507	11265.513476370675	2
0	19509	11265.82007313659	1
0	19516	11267.662572663596	0
0	19587	11326.052727915477	1
0	19592	11327.919690575767	2
0	19601	11329.646646715653	1
0	19604	11330.910631016213	2
0	19610	11333.943856565226	3
0	19611	11334.722565340333	2
0	19614	11334.883868008895	1
0	19616	11336.02618914903	0
0	19619	11336.027122941323	1
0	19621	11336.160895027269	0
0	19725	11378.123180888366	1
0	19726	11380.125441095385	0
0	19887	11434.191168798413	1
0	19889	11434.443836663978	0
0	19894	11435.852540609706	1
0	19896	11435.900921519334	0
0	19904	11438.864997125323	1
0	19907	11440.813578662555	2
0	19909	11441.279450927732	1
0	19912	11442.305459102149	2
0	19919	11445.195584859458	1
0	19924	11446.783579104593	0
0	19927	11446.858437032717	1
0	19929	11447.189469519174	0
0	20092	11514.339837639768	1
0	20094	11514.526162971739	0
0	20449	11672.755156208525	1
0	20451	11673.533236471523	0
0	20845	11892.677162066187	1
0	20846	11893.614795537234	0
0	21457	12278.675623246322	1
0	21459	12278.773639264495	0
0	21667	12379.508014021854	1
0	21669	12379.724986686082	0
0	21730	12433.421264379912	1
0	21731	12433.791071593957	0
0	21740	12436.916728046732	1
0	21744	12446.459617520998	0
0	21747	12447.063269501582	1
0	21749	12447.401116344676	0
0	21759	12450.395877808362	1
0	21763	12451.046537351115	0
0	21820	12476.724840009239	1
0	21821	12477.938764320251	0
0	21869	12511.632744409308	1
0	21871	12512.566785567352	0
0	22122	12667.519640429102	1
0	22124	12668.603045495764	0
0	22265	12755.794658891838	1
0	22266	12756.106105017568	0
0	22365	12798.615017326118	1
0	22369	12803.232313112269	0
0	22372	12803.522465868623	1
0	22375	12805.061778403216	2
0	22376	12807.126450551742	1
0	22380	12809.088112749786	2
0	22381	12810.533119345969	1
0	22384	12811.089061946944	0
0	22387	12812.489309900022	1
0	22399	12815.931704730476	0
0	22612	12949.653495061503	1
0	22616	12951.791834169607	0
0	23146	13325.496031726436	1
0	23148	13326.039562909535	0
0	23151	13327.320440279045	1
0	23153	13327.837789219805	0
0	23156	13328.569099452258	1
0	23159	13330.353700210624	2
0	23161	13330.46169355877	1
0	23163	13331.052471053452	0
0	23171	13333.780076930956	1
0	23181	13337.856177981474	0
0	23197	13343.379044335062	1
0	23199	13344.408896263027	0
0	23290	13375.764890055923	1
0	23291	13376.943540046878	0
0	23650	13649.330422489143	1
0	23651	13651.219942334502	0
0	23680	13665.668037466023	1
0	23681	13666.193852706208	0
0	23705	13673.650917159746	1
0	23709	13674.299763757421	0
0	23840	13734.870380268072	1
0	23844	13736.23664462614	0
0	24084	13852.546455758966	1
0	24101	13860.491112241314	0
0	24105	13862.247193812744	1
0	24106	13863.199210527637	0
0	24340	14057.14754450007	1
0	24341	14057.82511918802	0
0	24880	14393.57009677169	1
0	24881	14394.087961971483	0
0	24887	14395.422568839698	1
0	24889	14395.573952355343	0
0	24897	14398.50793837095	1
0	24899	14399.474381067855	0
0	24937	14419.590967463174	1
0	24951	14424.462923836201	0
0	25154	14566.064568257007	1
0	25156	14566.513331709544	0
0	25310	14662.340895549881	1
0	25316	14664.881101368713	0
0	25419	14754.267105234017	1
0	25424	14755.857459129182	2
0	25426	14755.89813074899	1
0	25431	14757.121222889771	2
0	25433	14757.595786241991	1
0	25440	14760.309447816325	0
0	25443	14760.607236552586	1
0	25447	14761.643534663557	0
0	25462	14765.914563767959	1
0	25464	14766.607097603824	0
0	25481	14771.351831474316	1
0	25483	14771.961050836325	0
0	25501	14777.117546062704	1
0	25503	14777.449798421715	0
0	25596	14810.484468077284	1
0	25598	14811.455234527521	0
0	25601	14812.227696927425	1
0	25603	14812.481831329663	0
0	25623	14818.701886461463	1
0	25626	14820.039646103207	2
0	25628	14820.636736968113	1
0	25633	14821.66395203129	0
0	25649	14827.590120532525	1
0	25651	14828.502445608053	0
0	25654	14828.848366640111	1
0	25656	14830.17615641124	0
0	26404	15356.697628615887	1
0	26406	15356.855761735312	0
0	26547	15416.283501719169	1
0	26554	15418.338501103227	0
0	26580	15427.841790929263	1
0	26581	15428.561570813936	0
0	26665	15472.431872678024	1
0	26666	15474.709966481999	0
0	26780	15564.81544440972	1
0	26781	15565.694604899772	0
0	27205	15748.4630677012	1
0	27206	15748.642751060838	0
0	27865	16167.158438784127	1
0	27866	16167.598641338405	0
0	28240	16439.451496002088	1
0	28244	16439.962279892112	0
0	28286	16452.542351988598	1
0	28288	16453.575389807349	0
0	28520	16579.423197624087	1
0	28529	16581.741231780714	0
0	28632	16636.440836432246	1
0	28636	16639.279800353316	0
0	28747	16693.337824811871	1
0	28749	16693.454437151124	0
0	29057	16869.830571442428	1
0	29059	16869.919825940284	0
0	29180	16961.336556316157	1
0	29184	16963.45526345179	0
0	29294	17022.7574857884	1
0	29296	17022.774634298156	0
0	29450	17149.793112177335	1
0	29451	17152.887623028381	0
0	29565	17242.256911404655	1
0	29566	17242.688898960093	0
0	29575	17245.482796573976	1
0	29576	17247.61541761522	0
0	29580	17249.483003106609	1
0	29581	17250.96738156314	0
0	29595	17256.155937385991	1
0	29596	17256.733285271303	0
0	29820	17368.756557217175	1
0	29824	17369.482333660344	0
0	30222	17672.022333929804	1
0	30224	17672.447668400126	0
0	30269	17686.199027233686	1
0	30276	17694.577480579371	0
0	30365	17760.897504204763	1
0	30366	17760.91273485682	0
0	30370	17762.503490732787	1
0	30371	17763.089593678335	0
0	30430	17787.762889554904	1
0	30434	17791.027170488348	0
0	30439	17791.697681884244	1
0	30444	17793.675225775935	0
0	30462	17799.04810238067	1
0	30464	17799.846567228808	0
0	30467	17800.310393918082	1
0	30469	17800.700482265756	0
0	30617	17859.282044540331	1
0	30624	17861.161030889274	0
0	30639	17865.89260215348	1
0	30645	17867.390856012454	0
0	30671	17875.867294198259	1
0	30673	17876.288178194584	0
0	31024	18069.811320611979	1
0	31026	18070.752185846823	0
0	31280	18211.178483529382	1
0	31281	18214.149232988709	0
0	31285	18215.454357445703	1
0	31289	18216.563298310585	0
0	31648	18438.538714357693	1
0	31650	18438.731821898643	0
0	31677	18447.32936546695	1
0	31679	18448.192221779989	0
0	31840	18533.076981534044	1
0	31841	18533.157635962557	0
0	31845	18534.457830782015	1
0	31849	18536.914666941432	0
0	31852	18537.216377991874	1
0	31854	18538.440315009394	0
0	31987	18643.780855718451	1
0	31989	18643.841042399068	0
0	32000	18648.682462601187	1
0	32004	18649.585858621361	0
0	32007	18650.301553446483	1
0	32009	18650.400189007399	0
0	32016	18652.240358106475	1
0	32024	18656.345290630762	0
0	32132	18714.597781625228	1
0	32134	18714.627063558506	0
0	32239	18763.643804160817	1
0	32241	18763.758854421842	0
0	32247	18766.293401805064	1
0	32249	18767.538836695917	0
0	32577	18945.740165578757	1
0	32584	18947.794758344165	0
0	32792	19063.091255339788	1
0	32796	19066.729456839435	0
0	32805	19069.799279780411	1
0	32806	19074.952292114305	0
0	32927	19129.521956244846	1
0	32929	19129.827544374595	0
0	32952	19138.001145753067	1
0	32954	19138.192119063714	0
0	33022	19162.198833765515	1
0	33024	19162.796841486324	0
0	33116	19225.56799022162	1
0	33119	19226.923414536544	2
0	33121	19227.0287580134	1
0	33124	19228.885751615443	2
0	33126	19229.291327201624	1
0	33129	19230.692039871008	2
0	33132	19232.31183934936	3
0	33134	19233.435824884985	2
0	33136	19233.541536938823	1
0	33149	19237.331890789159	0
0	33200	19262.778072180771	1
0	33204	19262.962709679168	0
0	33290	19342.284794030499	1
0	33291	19342.396595588014	0
0	33532	19473.522344620248	1
0	33536	19474.772086738953	0
0	33540	19476.318284652168	1
0	33541	19477.386078968861	0
0	33872	19678.043817097941	1
0	33875	19679.422420150475	2
0	33876	19680.36735428318	1
0	33879	19680.962997813367	0
0	34066	19827.467142455113	1
0	34068	19829.026133114422	0
0	34101	19839.151892228815	1
0	34103	19839.753416377521	0
0	34229	19900.840818679484	1
0	34236	19904.326308680044	0
0	34256	19909.272226546111	1
0	34259	19910.644796446303	2
0	34266	19912.457987437126	1
0	34273	19913.625631786882	0
0	34276	19915.171529056283	1
0	34281	19916.779187907802	2
0	34283	19917.453557322598	1
0	34285	19917.485597719288	0
0	34288	19918.483921693975	1
0	34294	19919.985923905688	0
0	34394	19952.545050979369	1
0	34399	19955.640724544916	0
0	34642	20090.681748691662	1
0	34651	20093.911133658369	0
0	34727	20119.819017832935	1
0	34729	20120.338026135226	0
0	34737	20123.037933594011	1
0	34741	20126.399629450678	0
0	34877	20221.417957465907	1
0	34881	20222.63354841818	0
0	34884	20223.230832796169	1
0	34889	20224.625685404948	0
0	34915	20235.149713120961	1
0	34916	20235.449154583436	0
0	34955	20247.732558009286	1
0	34956	20249.587625532749	0
0	35155	20406.04580583698	1
0	35159	20407.750505298691	0
0	35185	20416.282847726101	1
0	35186	20417.606831041246	0
0	35375	20538.501638717094	1
0	35376	20542.772203079511	0
0	35685	20762.440517491656	1
0	35686	20762.670207588074	0
0	35795	20842.982956512288	1
0	35796	20843.397538771462	0
0	36097	21021.028285531942	1
0	36105	21027.503961358589	2
0	36106	21029.445916334594	1
0	36109	21030.767164785833	0
0	36135	21041.487332657211	1
0	36136	21045.525194683297	0
0	36167	21078.7737530869	1
0	36170	21080.012296457825	2
0	36175	21083.161144669088	3
0	36179	21083.643000905556	2
0	36181	21083.866372932041	1
0	36183	21083.931901954228	0
0	36204	21091.169683197057	1
0	36207	21092.604241135074	2
0	36212	21094.10040214072	3
0	36214	21094.108364348537	2
0	36216	21094.775965401758	1
0	36219	21095.956176087549	2
0	36221	21097.603491544682	1
0	36226	21097.88794454448	0
0	36360	21166.813163237991	1
0	36361	21168.545145982991	0
0	36684	21397.762485970301	1
0	36686	21398.523597081073	0
0	36691	21399.232686512848	1
0	36693	21399.374551002508	0
0	37036	21559.142930058916	1
0	37038	21559.699151478496	0
0	37064	21568.971720254761	1
0	37074	21572.114817902599	2
0	37076	21572.608367685709	1
0	37086	21579.396017848965	0
0	37202	21635.907878785538	1
0	37204	21636.337308256054	0
0	37265	21659.002743754892	1
0	37266	21659.827225773216	0
0	37282	21665.023951489658	1
0	37286	21668.102374876787	0
0	37332	21687.770459258133	1
0	37334	21688.841347173421	0
0	37342	21690.690267016315	1
0	37344	21691.096407287954	0
0	37401	21768.591293435953	1
0	37403	21769.559132107392	0
0	37406	21770.306354022808	1
0	37409	21772.2274546035	2
0	37411	21773.287513563374	1
0	37413	21773.997698973455	0
0	37454	21787.233899295553	1
0	37456	21787.597382340982	0
0	37467	21791.817781310938	1
0	37474	21795.303086560153	0
0	37632	21905.159426354711	1
0	37634	21905.308248091043	0
0	37760	21984.304589027359	1
0	37761	21985.016558542346	0
0	38180	22239.158486689573	1
0	38181	22239.436783516041	0
0	38265	22288.739941185116	1
0	38266	22289.054775629359	0
0	38277	22292.355389440412	1
0	38279	22292.493441482348	0
0	38476	22404.897735349272	1
0	38478	22405.324165608312	0
0	38520	22425.046406371299	1
0	38521	22425.340279052809	0
0	38662	22497.115001790387	1
0	38664	22497.693645276937	0
0	38667	22498.57860462216	1
0	38670	22500.202921905157	2
0	38674	22503.004961667869	1
0	38677	22504.395612131079	2
0	38679	22504.803785813809	1
0	38681	22505.16882928999	0
0	38684	22506.021885531229	1
0	38686	22506.076696008388	0
0	38689	22507.393990290557	1
0	38691	22508.208131259436	0
0	38960	22679.049677293282	1
0	38964	22680.82592547612	0
0	39394	22974.714108990431	1
0	39396	22975.440410870234	0
0	39472	23001.118599336202	1
0	39476	23004.218942438619	0
0	39827	23183.734554594951	1
0	39829	23184.350304123971	0
0	40002	23279.07995622517	1
0	40004	23279.276362937336	0
0	40075	23317.847595691442	1
0	40076	23318.829586572885	0
0	40080	23320.418142483696	1
0	40081	23324.576619755062	0
0	40092	23327.522715396951	1
0	40096	23330.020539852083	0
0	40516	23641.153076140325	1
0	40518	23642.041652244486	0
0	40521	23642.809257502224	1
0	40526	23644.730510444475	0
0	40564	23658.149189910967	1
0	40575	23660.560080728823	0
0	40596	23668.605564529749	1
0	40606	23671.545358727055	2
0	40608	23672.416692107008	1
0	40613	23673.472835799422	0
0	40630	23678.246627795064	1
0	40632	23678.40170615696	0
0	40682	23698.703001252382	1
0	40686	23701.920424547152	0
0	40770	23747.381576903545	1
0	40771	23748.367667790102	0
0	40920	23835.646395385236	1
0	40925	23841.306982671422	2
0	40926	23841.36690981286	1
0	40929	23842.041906092541	0
0	41075	23923.064411271075	1
0	41076	23923.977148166621	0
0	41180	23983.045410961672	1
0	41181	23984.540813606984	0
0	41192	23987.540822630382	1
0	41195	23989.537749379693	2
0	41196	23989.717548095005	1
0	41199	23991.03082344056	0
0	41207	23992.95858611347	1
0	41209	23994.357958883687	0
0	41422	24077.932694159206	1
0	41429	24080.140036977692	0
0	41737	24266.527570682417	1
0	41739	24267.265135599962	0
0	41914	24335.817204094382	1
0	41916	24336.382585844272	0
0	42040	24382.515432147254	1
0	42041	24385.068511204646	0
0	42195	24498.137278594126	1
0	42196	24498.19235318788	0
0	42820	24948.939510566419	1
0	42826	24950.237446868547	0
0	42960	25039.246405531054	1
0	42961	25039.960439592844	0
0	43052	25097.407136549393	1
0	43056	25101.00102138132	0
0	43284	25245.164559145621	1
0	43288	25246.313947336244	0
0	43455	25327.714090045832	1
0	43456	25329.012124938169	0
0	43599	25432.07962376	1
0	43601	25432.657964432776	0
0	43623	25438.670515359655	1
0	43625	25438.937017002863	0
0	43636	25443.628278204329	1
0	43638	25443.939828465497	0
0	43646	25446.715030612513	1
0	43653	25449.245887973553	0
0	43691	25461.269289317631	1
0	43693	25462.419350363942	0
0	43815	25509.980422108273	1
0	43816	25510.601884537825	0
0	44130	25723.419497479914	1
0	44131	25724.057659076211	0
0	44245	25774.565842286733	1
0	44246	25775.85439075665	0
0	44595	26056.391699527785	1
0	44596	26056.680146939241	0
0	44935	26240.31210117738	1
0	44936	26241.856907698403	0
0	45355	26499.576441652568	1
0	45359	26500.687422198445	0
0	45607	26718.130806379398	1
0	45611	26719.871724443895	0
0	45860	26879.802658496925	1
0	45865	26883.062075890678	2
0	45869	26889.905644240312	1
0	45875	26893.351408056002	2
0	45876	26896.397168898374	1
0	45879	26896.716238661448	0
0	45919	26908.53490887338	1
0	45924	26909.754204358884	2
0	45926	26910.038831996765	1
0	45929	26911.018275979885	2
0	45933	26911.311579928893	1
0	45936	26912.856942462527	2
0	45939	26914.182855567128	3
0	45941	26914.556785919263	2
0	45948	26916.033129642376	1
0	45956	26919.030087281928	2
0	45961	26920.510985827407	1
0	45963	26921.766456142673	0
0	46020	26948.565412313999	1
0	46021	26948.805666197882	0
0	46025	26950.216733069577	1
0	46026	26950.306789952056	0
0	46085	26978.454898957302	1
0	46086	26979.411260488105	0
0	46090	26981.241396048886	1
0	46094	26987.510428878223	0
0	46097	26987.574996428349	1
0	46104	26988.927354534739	0
0	46114	26992.83461794366	1
0	46116	26994.018741566035	0
0	46335	27184.979424764706	1
0	46336	27185.651117602661	0
0	47002	27661.503631612099	1
0	47004	27661.677017142968	0
0	47020	27667.667745875311	1
0	47021	27669.595888479188	0
0	47025	27671.331083347224	1
0	47026	27674.131745377003	0
0	47320	27821.100475689798	1
0	47324	27822.97142979588	0
0	47480	27942.143998141164	1
0	47481	27942.305820734348	0
0	47485	27943.834666529219	1
0	47486	27946.271380923276	0
0	47725	28087.631421992232	1
0	47726	28087.848051380725	0
0	47730	28089.169310056032	1
0	47736	28090.872298563894	0
0	47859	28180.960871478303	1
0	47861	28180.994116449578	0
0	48194	28401.163105233833	1
0	48196	28401.39488000809	0
0	48540	28594.994801902864	1
0	48541	28595.32076781057	0
0	48597	28614.930767716918	1
0	48599	28614.934543164496	0
0	48809	28736.641087575354	1
0	48811	28736.737270861986	0
0	49027	28862.540047881107	1
0	49031	28866.32521419706	0
0	49120	28930.61113445617	1
0	49121	28932.414237779723	0
0	49164	28948.753632676087	1
0	49166	28948.895274055957	0
0	49465	29116.493211639305	1
0	49466	29116.542477791014	0
0	49495	29143.875898080334	1
0	49496	29145.471186027786	0
0	49727	29393.911084234591	1
0	49730	29395.731404161516	2
0	49736	29398.943808389322	1
0	49739	29399.388265133675	0
0	49742	29400.215763843485	1
0	49746	29401.942072067308	0
0	49806	29431.542589508705	1
0	49808	29432.285028882885	0
0	49900	29484.21122148464	1
0	49901	29486.873888724406	0
0	50095	29660.649949245155	1
0	50096	29663.126707436284	0
0	50297	29752.08814690218	1
0	50299	29752.925757600502	0
0	50305	29754.860356223329	1
0	50306	29756.825616107668	0
0	50735	29997.801080532825	1
0	50739	29999.058264529271	0
1	17395	10002.217893048975	6.745271999475
1	17402	10005.431782602914	7.092331281738
1	17405	10007.111270901211	2.139870318566
1	17420	10017.772571948656	1.31908296328
1	17425	10034.131138451933	1.47266014684
1	17447	10043.340879650703	5.26787054709
1	17452	10044.675277054413	1.724265435462
1	17470	10052.84724471907	8.616391896082
1	17491	10059.180014899592	2.987341342528
1	17501	10061.826694089579	3.256977311616
1	17504	10063.733503672327	7.70755628829
1	17517	10068.353007204119	10.370968820054
1	17534	10073.403180576335	6.83465542447
1	17544	10076.679276898909	7.773983210319
1	17557	10082.701424560394	1.744779684581
1	17570	10093.019229765625	5.0245123914
1	17590	10104.132173829765	8.99384549322
1	17595	10105.598720009482	5.666171037125
1	17625	10121.87955171778	14.213962100069
1	17635	10140.199836326599	1.766224443726
1	17645	10146.237343133545	13.053875683554
1	17654	10154.665511050321	1.553738254681
1	17666	10158.367257220917	4.205206574556
1	17669	10159.856748351701	2.719134954715
1	17679	10163.377092425585	9.917864219321
1	17722	10180.413374689673	23.154675221918
1	17725	10181.746908574258	18.505750229076
1	17730	10183.266873803761	1.437437669188
1	17735	10195.869723449594	1.488853102736
1	17755	10204.074291773703	7.996892105441
1	17765	10215.711623553065	1.915586444177
1	17770	10222.923750502948	1.716790569387
1	17777	10228.695418683831	1.816058589332
1	17792	10234.093057762792	6.251777292818
1	17814	10241.016256357131	2.919254075279
1	17845	10282.560922838574	4.568939697402
1	17875	10302.976600284581	4.617933728919
1	17885	10309.583060696464	1.320011051744
1	17895	10326.105878605053	1.815409980528
1	17907	10330.084327514612	2.1382564957
1	17910	10331.827166914896	5.135146549158
1	17917	10347.344184163223	1.692521816865
1	17934	10354.365108727502	4.367081483683
1	17945	10359.046745705815	5.498308413836
1	17965	10366.828208057333	6.314173210307
1	17970	10369.226112824807	6.290031451481
1	17999	10383.135441883666	1.786819619313
1	18007	10386.505233728712	3.679378113964
1	18010	10388.339602987295	15.191993809216
1	18020	10397.576438225925	2.97605190289
1	18030	10405.879838440683	4.371777013504
1	18052	10417.129084248135	1.776899107313
1	18064	10420.465762424694	3.225511199573
1	18080	10427.525202506892	19.798394080653
1	18085	10431.240454037999	14.428068869164
1	18102	10436.695420828849	15.963221708742
1	18132	10448.127462029931	11.531577113936
1	18149	10452.740577815016	5.782885123788
1	18159	10455.684576161308	4.333694428221
1	18173	10458.918737235209	10.000941472744
1	18188	10463.44051985546	5.531831218835
1	18193	10465.271645108526	9.092137428742
1	18233	10478.128415526986	2.652894315967
1	18238	10479.497511237837	18.086015450391
1	18241	10480.899154032185	26.680036997673
1	18246	10482.417146602995	18.728179144862
1	18249	10484.220625842153	5.23074807715
1	18262	10489.457761020749	8.441615300302
1	18295	10505.953718029922	6.806327163306
1	18307	10510.109153781109	7.644421264711
1	18315	10514.588897420893	1.366156890616
1	18329	10518.325493369683	2.266742711754
1	18332	10519.893157322764	3.814914187507
1	18365	10533.280550365148	5.594072211421
1	18387	10545.140200454305	1.518679513969
1	18392	10546.486903891462	11.210780410927
1	18404	10549.508598841103	1.601714508151
1	18407	10550.895857974263	4.443183673229
1	18410	10552.26077847884	3.212591386238
1	18442	10593.99960256286	5.675008777342
1	18445	10595.501252989583	6.722621257656
1	18457	10598.714476890511	2.6307812892
1	18462	10600.077995740085	3.357532445698
1	18465	10601.523499989717	12.329328866378
1	18475	10607.013821549245	4.261013102539
1	18480	10612.251653195687	1.570584811084
1	18497	10619.610646878473	2.250545090086
1	18500	10620.877011791721	4.400250591897
1	18505	10631.511683864376	1.26428253334
1	18517	10646.377894034874	3.187187737061
1	18525	10649.030793897141	1.707016021133
1	18550	10661.723517198433	2.87469015415
1	18555	10664.319133751095	9.414252370145
1	18575	10676.090252587892	4.917647328228
1	18604	10687.93207401931	5.343326808325
1	18607	10689.253630923849	1.745914040913
1	18632	10698.141475179751	1.383576133847
1	18639	10699.673757804703	8.187711904254
1	18652	10704.746660765965	14.225340041105
1	18687	10718.279788345136	9.698700126196
1	18694	10720.242827822306	15.457208747616
1	18707	10725.466819269248	6.612982683513
1	18717	10728.895398937576	3.297395695641
1	18740	10737.335060382773	11.544454106598
1	18745	10740.150230672823	20.36156014284
1	18792	10758.104586358732	14.980045295934
1	18802	10760.681678680694	17.250081794264
1	18805	10761.983726786999	3.362381532738
1	18827	10783.836928252539	6.66206669218
1	18835	10792.545373592996	1.740863301791
1	18840	10797.444702086659	1.259145409241
1	18845	10809.402814697092	1.911513773352
1	18855	10829.592350665855	7.188922282802
1	18887	10844.250142091431	1.335805351101
1	18890	10846.110486510873	16.473744385925
1	18900	10853.127983338989	3.321884799083
1	18907	10856.145482505428	1.417218198441
1	18915	10860.915447701622	5.396713581655
1	18935	10871.705394176298	7.389036882687
1	18942	10879.206038313962	1.34580235891
1	18962	10885.463054955788	5.721576325264
1	18967	10887.343108024672	8.234807801594
1	18970	10889.273418693096	2.156407040245
1	18982	10898.272253171492	6.499337285478
1	18990	10901.75711475848	2.361596996415
1	19047	10929.785145973923	9.55461549053
1	19088	10940.62138162772	4.319366942215
1	19091	10942.566901759569	11.268773213334
1	19096	10944.353718180534	6.37453231654
1	19099	10946.35115159503	19.750860328712
1	19132	10959.024042918031	9.405183558253
1	19144	10962.522982488913	26.802219691109
1	19159	10966.968382585948	3.543553586542
1	19179	10973.034069342879	17.597305646823
1	19189	10976.317818985475	9.289833409194
1	19205	10987.387022322271	29.488665408879
1	19215	11006.464820907837	6.599437525662
1	19225	11013.029637313418	3.643789275483
1	19237	11017.487355495763	1.893856677786
1	19240	11018.9702743718	4.743000210497
1	19255	11033.336452442427	1.663616656326
1	19287	11046.649128912285	12.592169240598
1	19290	11048.567076958425	12.16474899652
1	19320	11091.756619085938	11.998622203305
1	19325	11095.358956421198	10.70710500863
1	19335	11103.853779591647	1.410976517946
1	19340	11108.521781890006	1.635478710383
1	19350	11118.49954360583	4.269888812366
1	19367	11132.315341768545	1.885129623343
1	19385	11140.542007457726	17.672376136843
1	19417	11158.418912390118	5.76410409024
1	19420	11160.076048783456	5.240855994262
1	19435	11169.572450797701	5.092207581922
1	19450	11190.729176688329	6.524488160054
1	19465	11206.279074392653	8.581321798157
1	19514	11267.385321711963	3.677910419644
1	19519	11268.9959876478	13.71282423558
1	19524	11270.259279917767	3.900929992572
1	19527	11272.082728828145	13.84311306517
1	19530	11273.734267796604	11.390261217816
1	19542	11292.994563123492	1.675701158866
1	19557	11314.468704320225	7.018013408303
1	19560	11316.366449826318	2.269832072712
1	19599	11329.177561175581	1.8633045303
1	19607	11332.507382836137	3.43711965967
1	19634	11340.686752030894	18.348574629107
1	19639	11342.359651397995	19.654797907456
1	19644	11344.335096397146	23.961703301381
1	19649	11345.888005454547	17.876274082772
1	19676	11354.284145485132	10.28666084708
1	19679	11355.692801229178	4.4200662751
1	19682	11357.544180486619	13.008745669185
1	19700	11364.149912870287	10.796446874361
1	19705	11371.284453691585	1.320638535917
1	19739	11383.550111615624	10.74226259705
1	19757	11390.097348081099	2.862231750888
1	19760	11392.034354195709	20.674026323861
1	19784	11404.244961940592	6.584741963275
1	19787	11405.848134345842	8.627053589
1	19797	11408.450296930318	1.861813259642
1	19840	11419.811297248957	6.561514203452
1	19845	11421.678401779291	8.444327642067
1	19865	11427.817686965783	17.545099835792
1	19917	11443.806371764745	24.746384037448
1	19938	11448.696090373489	20.095696033082
1	19941	11449.974009882751	25.564591738092
1	19946	11451.808842828403	32.510682394562
1	19956	11455.134039625058	6.681307277672
1	19971	11460.13433645414	11.745464911216
1	19981	11462.771957239414	11.674785917061
1	19989	11466.643962391744	10.752734286728
1	19992	11468.117587586957	14.729994731395
1	20055	11492.38080548771	7.885266859668
1	20058	11493.638696481439	1.738846587997
1	20099	11516.213475263108	4.007881212489
1	20109	11519.424964087259	8.457393106869
1	20122	11523.651639256243	12.942601680011
1	20164	11549.447763673728	7.712526741663
1	20167	11551.143989964528	1.724755267739
1	20204	11581.166944131899	7.767222646637
1	20207	11582.56302528185	3.74029938237
1	20217	11585.858557323638	2.095629238632
1	20220	11587.778692423265	11.626250553603
1	20232	11592.20527966139	1.822382721458
1	20240	11595.518392777491	2.103069486909
1	20267	11603.886730226235	7.518231089946
1	20277	11607.439839676128	11.485284332186
1	20301	11615.378588739475	4.787004236943
1	20312	11620.520206489851	10.195970003256
1	20315	11621.996350377863	11.290083009455
1	20322	11623.548837651701	34.388589854507
1	20352	11636.06540972782	1.610196866468
1	20391	11651.226625621179	3.734637986467
1	20394	11652.542540383013	12.424957688839
1	20404	11655.079932571994	8.284344979113
1	20409	11656.845281603606	8.269267365916
1	20429	11666.313386450471	2.68916353084
1	20464	11678.12462632651	8.437850545446
1	20472	11681.382066696272	11.968737898652
1	20499	11695.004322157086	1.815083435616
1	20519	11701.397382654518	2.890719923814
1	20522	11703.286919100106	4.027338591722
1	20532	11709.371919118553	1.5540887326
1	20540	11719.199672031764	1.214492021501
1	20552	11724.909266170445	2.816371548325
1	20560	11728.122188854088	3.681309449235
1	20575	11735.632350898059	5.644107288524
1	20610	11761.967532538782	8.637773496355
1	20644	11779.857174333326	6.108532980531
1	20655	11785.159276110261	6.787044719131
1	20660	11800.451358710847	1.607828163914
1	20667	11808.9977526226	1.886280454881
1	20700	11824.285034914042	15.6635856632
1	20714	11835.017068093848	1.918815277703
1	20717	11836.677993195709	5.328096962369
1	20734	11842.837799706982	1.973699699901
1	20747	11848.062069613349	1.568663201295
1	20767	11857.25087890175	23.515378333585
1	20789	11864.754661531664	2.933387012603
1	20797	11867.294526254675	5.92138557434
1	20802	11869.182052903912	2.810711678217
1	20805	11870.939433842256	17.35238333816
1	20812	11874.454670169652	1.816535768658
1	20815	11876.413166576513	2.554386893838
1	20829	11885.878288116392	3.706889581259
1	20852	11895.209581982658	10.948486606324
1	20860	11897.972939072354	13.527632764083
1	20886	11907.7967413605	4.195325075962
1	20903	11913.313603050335	5.594584148099
1	20911	11915.95386470843	6.454072656124
1	20916	11917.220974680669	16.095911595499
1	20919	11918.666337040141	16.375248152696
1	20944	11926.887085751704	10.908368445356
1	20954	11930.371650259084	22.514273440672
1	20957	11931.925509336292	4.589337192994
1	20960	11933.786934289596	13.543865151273
1	20970	11956.785659016036	1.774694117159
1	20980	11964.7887277708	3.695576043928
1	20985	11970.99964862419	1.475635588169
1	20990	11976.823718384849	1.591938534938
1	21005	11998.487592115917	4.561789564605
1	21017	12006.220506972196	1.933566371257
1	21037	12012.123456177609	1.659932620125
1	21045	12014.830862197414	1.469317772612
1	21054	12017.658464783458	1.711251620948
1	21067	12022.341957439663	5.783682954295
1	21072	12023.590745103167	2.179866007511
1	21075	12025.335753831261	1.797630852514
1	21087	12039.058710648839	1.920765368944
1	21123	12048.821602094334	12.683036120236
1	21126	12050.142781888668	9.90876638415
1	21132	12053.083493341666	5.246197877207
1	21137	12054.61277775706	11.403699474789
1	21142	12056.07881107812	8.612450037725
1	21155	12063.542677525048	8.076306880299
1	21175	12075.242398154309	7.059634907117
1	21180	12080.002451007262	1.681988736615
1	21187	12086.370271830581	1.490827154741
1	21204	12090.676180970669	5.489051007574
1	21207	12092.052805455029	4.090385626256
1	21210	12094.035980032943	3.767911781002
1	21215	12098.376948082759	1.636477382667
1	21229	12112.971022771749	2.739689619956
1	21232	12114.776319705772	4.77345369216
1	21235	12116.3490225314	3.462716699374
1	21240	12119.503742609211	1.975921742432
1	21271	12131.589097455955	4.140770761639
1	21281	12134.895050633578	5.902180147525
1	21289	12137.785623670621	11.539500471006
1	21294	12139.639226822434	17.106252263523
1	21307	12144.106080857357	4.948878708502
1	21317	12147.071850165366	4.065957990075
1	21325	12153.992275078328	1.931898768619
1	21330	12179.118956005647	1.291768801399
1	21335	12186.423811485658	1.693414354511
1	21347	12192.533601843428	1.60626594387
1	21350	12193.841334659469	2.052243534151
1	21357	12195.668878744218	1.46074825041
1	21362	12197.582474582504	9.92093092009
1	21370	12200.738613388623	5.050199747625
1	21375	12206.862380403471	1.241605415568
1	21380	12214.823246161133	1.694532437995
1	21390	12221.713808611048	1.757655452006
1	21397	12224.107707417185	1.41313221287
1	21400	12225.412457345227	7.231078093741
1	21412	12229.575942187017	1.949199384967
1	21417	12231.400799989147	5.488770102523
1	21420	12233.01530797538	2.599596250161
1	21430	12255.410255296285	4.553747187338
1	21435	12271.168199552468	1.72769057285
1	21449	12275.605590461979	1.421077361718
1	21467	12281.515917567762	9.101477063447
1	21510	12294.214236391806	3.993653567944
1	21513	12296.0753620158	19.072644450347
1	21516	12297.355283268826	7.958404463549
1	21519	12299.033353517303	5.599318235935
1	21522	12300.693798198091	6.606849820104
1	21535	12308.593691710735	1.962567114644
1	21552	12313.917562862436	1.714424929025
1	21560	12318.935333769435	5.142639350478
1	21565	12320.987551757404	1.698585008085
1	21601	12335.389754463468	4.658457476734
1	21614	12340.306416407894	11.665312542213
1	21617	12341.768358094539	19.967918502603
1	21625	12348.748388786675	1.964786638878
1	21630	12352.885960257606	1.606409394555
1	21635	12361.770518668041	1.368091192469
1	21649	12373.309512930032	3.038075517968
1	21652	12374.712604533363	4.594986288622
1	21677	12382.547153463068	7.446231387053
1	21685	12385.577784208788	8.85506880301
1	21690	12387.195523043546	1.293266500346
1	21705	12401.529814373492	11.624558507667
1	21712	12402.863644995969	1.217541524768
1	21720	12405.963131372498	3.849523723481
1	21766	12451.887416241534	6.11945025716
1	21774	12454.751834970183	4.299775375401
1	21779	12456.001953813463	26.100673724672
1	21782	12457.465341275401	26.068215741327
1	21785	12459.287848636165	9.049638265776
1	21790	12461.196802828636	1.441024198197
1	21809	12471.922203495567	1.810450815037
1	21827	12479.580153795455	8.538334532114
1	21830	12481.526484858182	16.862264754791
1	21835	12486.966703212551	1.84620276019
1	21840	12492.117060649582	1.881492919289
1	21845	12495.442927198301	1.564208021574
1	21888	12516.72293983025	9.92080921959
1	21893	12518.648051714874	10.767297953006
1	21903	12522.393135186448	4.758214036529
1	21908	12524.313970179274	3.62801747686
1	21911	12525.654849505588	10.097533789374
1	21935	12549.606130061857	3.75081784824
1	21945	12553.694831233355	3.127346530675
1	21955	12561.892889351427	7.26051689458
1	21975	12580.983002723731	1.779547878169
1	21982	12583.283510784297	1.893462812342
1	21992	12591.893992266927	22.707312600169
1	22007	12596.002455941897	4.990933534086
1	22015	12601.589440208487	9.467657826091
1	22022	12606.202432597495	1.986349164695
1	22025	12607.523989428274	2.150089209008
1	22030	12615.342090200184	1.585736999474
1	22035	12620.554514987838	1.841688710265
1	22049	12629.469109251046	1.434400856309
1	22069	12635.786376470954	10.315819857376
1	22080	12640.847018962048	7.170761144742
1	22090	12645.397955385705	16.909425564869
1	22127	12669.453244875901	4.55897609791
1	22137	12672.805788167537	15.548832646064
1	22140	12674.098183162854	9.936384206452
1	22147	12680.356675329323	1.476150994375
1	22155	12693.043307641636	1.331184074283
1	22170	12704.713991726163	5.744423393092
1	22175	12707.129137514916	1.697424957901
1	22187	12711.737390674222	3.460569636051
1	22200	12719.870495361474	3.334824203874
1	22207	12723.766858872312	1.225198432989
1	22240	12737.404838163231	10.834984687752
1	22274	12757.941748996916	6.329562756413
1	22282	12760.93571387017	6.737685901968
1	22314	12769.980909849795	13.203752769087
1	22324	12773.148261719662	1.875828290442
1	22337	12777.925176970753	1.946631461762
1	22352	12785.576198778257	1.34938666448
1	22355	12787.129571719609	18.608720622747
1	22392	12814.074745569519	18.520602129971
1	22397	12815.28065480753	2.492902209664
1	22406	12816.954679392792	1.701972943253
1	22418	12819.648321864709	17.899130564554
1	22428	12823.083345517471	4.412245146108
1	22433	12825.015048517428	27.958077785404
1	22438	12826.431897136524	4.094034281946
1	22446	12829.428177145451	3.509889532439
1	22457	12833.748688596629	17.64223996928
1	22485	12857.586935213487	7.190880790643
1	22505	12884.774809026975	9.47075012039
1	22522	12894.022030246379	3.31562109649
1	22527	12895.973881202499	2.512840932013
1	22545	12910.834461654847	1.486092197523
1	22555	12920.369009271299	2.835447467187
1	22574	12930.595344957873	2.146342398109
1	22579	12932.508854429215	7.06577355584
1	22585	12935.67960335163	4.921009810095
1	22615	12951.067622683116	2.314027112444
1	22627	12955.448939389344	9.193526740676
1	22630	12956.775157523881	27.419555350877
1	22642	12963.271797855075	1.745901297033
1	22652	12969.297274281129	9.43916408831
1	22655	12971.205911999054	3.069533590425
1	22670	12982.744380095021	9.507676095787
1	22690	12995.005386540638	5.709259283604
1	22697	12996.968174079614	4.681980861188
1	22702	12998.778469528439	2.058843606989
1	22705	13000.718618621672	2.721079407518
1	22722	13020.107122745899	2.810937285441
1	22734	13023.970236187398	1.774624902941
1	22739	13025.67023159933	2.772902671944
1	22742	13027.121849436468	3.585671190187
1	22760	13034.742560246756	9.800667040782
1	22785	13047.91098037427	5.163138183887
1	22795	13054.77034607888	1.647670147568
1	22847	13089.414768885915	5.181495961177
1	22892	13113.316130329951	1.744893568754
1	22910	13121.228334999888	6.265483443959
1	22922	13126.591128528472	3.838033897799
1	22932	13129.602009962853	1.228234030493
1	22950	13168.62420465301	2.937696199132
1	22965	13180.54464180972	3.416805504125
1	22975	13207.810156036886	2.937922949924
1	22980	13213.073361707955	1.964581869915
1	23002	13229.17989491151	4.152456425268
1	23005	13230.390932086495	1.484646569772
1	23017	13244.669409966466	1.987468892522
1	23027	13248.214171383341	3.434886345416
1	23030	13250.122241399621	5.693894047008
1	23035	13252.758817263343	1.358312030882
1	23040	13255.393061214295	1.915215253457
1	23059	13274.896795004219	2.943921904845
1	23062	13276.670331980646	6.678275365196
1	23070	13281.025769844047	1.224545045197
1	23080	13301.409792576512	1.593048863299
1	23092	13308.286593065621	1.743928313069
1	23097	13309.864297640906	1.580133747239
1	23102	13311.327356686839	1.901637687977
1	23110	13315.178676585504	2.805998491249
1	23128	13318.566547764004	2.513376127795
1	23174	13335.504995528893	19.081211848914
1	23191	13340.551227876084	19.019841088444
1	23216	13348.725942076654	31.5832559644
1	23219	13350.162389607266	10.982459731351
1	23222	13351.541799281262	3.416355381638
1	23232	13356.747318428206	1.518442130834
1	23252	13363.142187672491	5.93899781704
1	23272	13369.444170575617	13.491333489992
1	23302	13380.398415786355	13.593722253592
1	23305	13381.834923328228	10.243703367897
1	23320	13402.414065146709	7.698077650301
1	23325	13405.246561920996	1.728856175579
1	23344	13444.127183586403	2.461808485525
1	23362	13451.101483766321	7.848356501539
1	23374	13454.060220335941	2.640565380053
1	23402	13467.934228949029	1.737091540054
1	23430	13477.448620815654	7.444685940259
1	23440	13485.415332217536	1.587875566818
1	23450	13494.15853547703	4.222301830737
1	23455	13502.123514096342	1.343046172708
1	23460	13508.545335123697	1.394728512876
1	23465	13518.515881764101	1.882251803763
1	23475	13529.76427210203	4.747428348678
1	23480	13537.064129777949	1.738881121948
1	23500	13556.267400895206	6.885747790106
1	23510	13560.152747553042	2.130842942491
1	23519	13562.945945851197	5.727915671519
1	23532	13567.961631904049	5.651444661263
1	23544	13573.667349879181	1.857757504284
1	23567	13586.103663616109	12.786973237472
1	23597	13601.142307954934	2.266896342848
1	23600	13602.41311203586	16.348980865732
1	23610	13612.737134344146	1.584615480341
1	23620	13632.34890623224	3.784907866575
1	23625	13634.608341441551	1.506855598092
1	23634	13642.990537028744	1.926792591065
1	23642	13646.406242698974	3.531910263054
1	23647	13647.664718285932	4.544222160713
1	23655	13653.199183221183	11.803161805332
1	23667	13658.238855204995	10.988287727286
1	23692	13669.419125494874	5.264581694531
1	23721	13677.363927950931	20.781227485067
1	23726	13678.729115390626	3.500077800328
1	23729	13680.264710800571	9.07882020496
1	23747	13692.019816549303	1.945295034163
1	23764	13697.641480616952	5.874871981939
1	23787	13705.596657850636	1.597263927013
1	23795	13708.829421699844	11.697735605097
1	23800	13714.408348892101	1.338512965478
1	23817	13727.590010611166	6.136607166368
1	23859	13740.685884121504	9.188399925272
1	23884	13748.457279031015	2.54688735272
1	23895	13753.355933758094	2.252470746035
1	23910	13762.063021842061	34.277820611276
1	23920	13767.568282601675	1.819586784782
1	23935	13777.48406862748	12.856477114503
1	23947	13789.995460627535	1.894529884122
1	23952	13791.814812523434	2.840101654609
1	23960	13795.022548753516	1.906153068457
1	23980	13812.792541568754	1.382776242867
1	24005	13825.936414062567	1.476228773151
1	24012	13829.572517445319	13.528487897763
1	24065	13844.588745871156	2.030971486348
1	24071	13847.347342171303	18.419940598511
1	24131	13870.321810504892	3.201228751467
1	24136	13871.673363807337	31.433920460199
1	24139	13873.048129067855	25.034314427031
1	24142	13874.406517354311	2.94089833964
1	24170	13881.918054532207	3.239168287663
1	24183	13886.04839016287	7.186921291881
1	24188	13887.904909881897	2.211355169617
1	24201	13892.60279781124	11.690293821359
1	24204	13894.030654016085	2.09103144012
1	24230	13916.425430736847	1.492903902009
1	24235	13943.098055731225	1.538633907028
1	24255	13973.645710072344	2.300558026663
1	24267	13979.878719776889	1.909483792819
1	24290	13992.104978137941	8.855280673157
1	24300	14000.186057692218	4.295837991697
1	24305	14004.961302304073	1.443026491068
1	24310	14027.306441300973	1.624007420242
1	24315	14033.281409269414	1.399538148753
1	24320	14043.888494810902	1.586968803592
1	24345	14059.127493515389	5.074566639932
1	24355	14063.679299916808	17.20773548443
1	24360	14066.300369334777	1.522551023401
1	24370	14075.236830682758	3.83089273266
1	24375	14079.876123024339	1.867137695104
1	24392	14090.729134835195	4.733636911213
1	24400	14094.713379940309	8.249677924592
1	24410	14100.73974439842	3.529283498991
1	24484	14136.069195650967	4.528365789168
1	24511	14145.311699495355	6.172277361943
1	24514	14147.267547104771	13.910257572165
1	24525	14152.561862093324	1.75828457959
1	24537	14156.245232811679	2.093441480243
1	24540	14157.61323402628	2.125942606873
1	24545	14159.743330753888	15.948576708272
1	24562	14169.875943025335	2.025626382966
1	24570	14172.752735450601	9.761123378075
1	24592	14189.410467412034	4.000799817033
1	24600	14193.594770827382	7.096442404654
1	24625	14208.944493706954	4.88821089322
1	24635	14216.908364334711	5.908525557304
1	24645	14237.849523206335	5.880808999005
1	24657	14241.532381929417	2.307570034735
1	24660	14243.117580227327	4.952906347438
1	24691	14255.479816166142	1.553007125854
1	24699	14258.636289788241	3.755407261614
1	24704	14260.631304384599	5.334084476434
1	24710	14263.951920388842	3.560124837808
1	24715	14266.5315350163	22.544704885433
1	24720	14275.660401306674	1.393889625743
1	24735	14283.05449224946	6.353493110127
1	24750	14305.117756121936	1.548304527067
1	24775	14330.856689600412	8.526516271003
1	24785	14335.622924075378	4.289653290259
1	24794	14338.08985147545	1.309708465822
1	24805	14348.277743448694	1.776893860102
1	24817	14355.447953624762	2.098768535333
1	24830	14359.716641524731	7.109511706606
1	24847	14373.669135261178	1.637816601805
1	24850	14374.986031298563	5.864548862851
1	24871	14388.43583390833	4.482077586464
1	24874	14389.885250627521	3.247781877754
1	24909	14402.047360807568	7.580900762753
1	24912	14403.494194060289	15.175945777874
1	24915	14404.835431443066	20.122770508179
1	24920	14406.240029942623	1.328030919097
1	24949	14423.387171690736	1.730421788245
1	24954	14425.292057069216	2.583639647025
1	24957	14426.553373031516	13.675557475475
1	24965	14429.489965047885	11.458559488858
1	24975	14437.829093388911	4.415625017826
1	24990	14460.62333151935	1.702401808649
1	25007	14470.593633256287	6.493770898956
1	25015	14473.779490505989	1.441506638937
1	25027	14481.548802964645	1.427090359791
1	25035	14493.787764136022	1.710593220405
1	25052	14512.165191132999	2.376018565186
1	25055	14513.572339808061	7.376495896104
1	25079	14522.677766409223	2.223748132819
1	25100	14535.826988417258	2.696985375466
1	25125	14552.658096001801	5.461390653933
1	25162	14568.599303543802	6.401025169534
1	25180	14575.496333649846	15.940707737859
1	25192	14580.054131596133	1.270448880456
1	25207	14593.98841893262	1.3008730717
1	25217	14598.537958948602	4.827907992876
1	25225	14601.354783092725	2.953039740168
1	25240	14614.994936467362	4.629267187603
1	25260	14638.352407471894	3.775734502572
1	25269	14648.146386468711	1.244350578263
1	25282	14652.891474008302	5.490103270264
1	25292	14656.162344116087	2.299691633505
1	25324	14666.529556586752	7.275025369641
1	25327	14668.382397784265	3.100796376557
1	25335	14673.223172320482	25.451174849601
1	25340	14678.452195306854	1.521866847761
1	25345	14683.575230599399	1.329726331495
1	25355	14690.688938262229	1.928363558243
1	25367	14703.238323592196	1.299275378324
1	25375	14708.645765028984	8.760455101313
1	25414	14752.621672980835	3.654519980158
1	25438	14758.782086437357	2.954797997004
1	25476	14769.465936717924	8.216613205826
1	25488	14772.78548333307	26.980097994765
1	25508	14778.481215984162	20.712246269209
1	25513	14779.984775905099	11.75815524615
1	25530	14785.263329417419	31.763371270314
1	25533	14786.916767486904	30.033447113975
1	25541	14790.108926044379	24.403088444501
1	25549	14793.224982889716	44.188992775108
1	25562	14798.368610254463	14.860866047346
1	25567	14799.896853641581	55.811714629768
1	25570	14801.375163325083	24.872110026759
1	25578	14803.928015042257	21.737592760683
1	25590	14807.611317266498	8.908618329843
1	25608	14814.146752597552	45.918786904506
1	25631	14821.497727860112	19.251981886528
1	25638	14822.800232380417	6.102330501053
1	25659	14830.534494063792	52.892430100722
1	25679	14837.212831756447	32.318855950694
1	25682	14838.578488196221	22.421597453591
1	25692	14842.060821565588	3.206303961387
1	25700	14846.937053921338	1.587220019102
1	25710	14860.549213277925	5.91017525961
1	25722	14865.036404300998	1.890144743107
1	25735	14869.469580099051	3.205384339238
1	25740	14876.848965860835	1.45555936154
1	25771	14892.91494766945	8.078933314979
1	25786	14897.839893585499	7.151093607897
1	25789	14899.060060763415	12.81322508938
1	25799	14902.16684387872	1.799798773333
1	25822	14910.556649513142	3.122809640875
1	25829	14911.797162446724	2.335484546324
1	25839	14915.230941607216	3.645627878557
1	25844	14916.598074139626	14.585582671764
1	25847	14917.870266578132	3.19673385531
1	25850	14919.444296196075	4.019232815617
1	25865	14928.244209960903	6.172192020328
1	25875	14932.181526946876	2.960654303988
1	25885	14937.179074679877	4.331510349486
1	25890	14941.363943904787	1.562518269755
1	25895	14950.697283906851	1.343250376731
1	25902	14958.254054071432	1.625739634223
1	25910	14966.53143964969	9.332413102934
1	25915	14972.417293958796	1.517438652925
1	25920	14975.742027512012	1.603989880905
1	25934	14981.078382969712	1.260096911341
1	25937	14983.026359116164	2.222279363703
1	25952	14990.640798222353	1.936502301134
1	25962	15003.217589465419	1.213488407806
1	25970	15008.044211270968	6.007534646981
1	25979	15029.050091535991	1.652016879059
1	25982	15030.50221308211	1.890621166758
1	25997	15037.164767457538	8.421514157793
1	26005	15040.749811825364	4.12396106236
1	26012	15046.30890912736	1.213175415061
1	26022	15050.508859851227	1.387600058876
1	26046	15057.44051822854	4.579260393741
1	26051	15058.790846523473	13.397201587235
1	26054	15060.39249729255	7.92248119238
1	26080	15093.205006370141	6.890826952224
1	26092	15114.74853759799	1.671856261045
1	26105	15126.134967698329	14.820618233463
1	26115	15144.55861437568	1.240711950697
1	26149	15164.32151247477	8.084693713487
1	26152	15166.25872823065	4.302626129034
1	26155	15168.051955381127	19.09192607579
1	26165	15184.846037017396	1.534365431406
1	26184	15210.162597725197	2.210142381238
1	26197	15215.095853701263	7.806945269741
1	26205	15221.106605269373	7.269090590998
1	26222	15231.963068226794	8.285416637599
1	26245	15254.894175909107	1.779353882745
1	26250	15256.928920525498	1.633241149224
1	26260	15263.106759986143	1.297275136039
1	26267	15280.162530983102	1.254561584443
1	26272	15282.119617371124	2.747623258623
1	26289	15286.405963053976	5.72502855794
1	26294	15288.325547248547	4.055167055325
1	26316	15293.903966528785	2.656337681742
1	26326	15297.550893390414	11.345571454537
1	26329	15299.424389725414	6.60314221755
1	26332	15301.220175417934	6.850142971819
1	26335	15302.971783717584	14.829379519317
1	26340	15314.014018093429	1.690801431797
1	26370	15342.410468026895	11.426833852504
1	26411	15358.595903122888	3.887016635851
1	26414	15360.428675528334	12.66468134598
1	26417	15362.05861181272	9.696816586935
1	26429	15365.961001018642	1.895604907535
1	26440	15370.401110858305	5.602486997249
1	26464	15377.410413127556	6.647971357215
1	26471	15379.00680553203	5.277319146738
1	26474	15380.431445944659	2.744447603661
1	26502	15391.497229949995	5.187010269612
1	26515	15401.336924253883	1.814320393838
1	26522	15408.534734319381	1.961677254923
1	26534	15411.632823174864	2.435811586908
1	26564	15421.517395270084	8.573398246268
1	26570	15424.513369910632	6.320593623072
1	26585	15429.766884354372	21.731651623538
1	26595	15434.82998874792	9.56398858278
1	26602	15437.914949554451	1.782640261948
1	26605	15439.787321901195	3.324056218016
1	26632	15458.196958421339	1.571379154921
1	26637	15460.169091437367	2.707300653707
1	26640	15461.550205454027	17.410902888999
1	26679	15478.035420114697	8.11018394116
1	26684	15479.39849325806	17.393313958475
1	26712	15497.537015360178	1.604329707101
1	26715	15498.766294942194	7.853959114665
1	26747	15534.894268564087	2.773444636064
1	26755	15538.420349244749	6.362852340029
1	26760	15540.63595563199	1.443071766943
1	26765	15548.890242217931	1.401250655204
1	26792	15569.152559750938	6.486598564429
1	26797	15571.114550068827	9.967500239776
1	26800	15572.610721257927	2.851737346986
1	26810	15579.513136817468	5.9933218194
1	26829	15586.186869057057	2.455151507145
1	26832	15587.666677069453	4.529487548396
1	26855	15601.245568865223	7.338814676129
1	26879	15611.428464100233	6.04119053118
1	26902	15619.775397172666	12.217375440079
1	26905	15621.635361159502	3.008016789772
1	26914	15631.525556540505	1.512720197067
1	26945	15646.038441410914	14.513268542755
1	26975	15662.672785916968	13.782992413106
1	27032	15682.509181135015	5.097977048528
1	27045	15686.812226301858	15.409407490451
1	27091	15703.430522949862	21.498370020273
1	27094	15704.651168399545	4.224204006878
1	27110	15711.096227292826	2.315790774431
1	27133	15718.883639176667	3.561241214715
1	27138	15720.260936248966	4.563213814559
1	27146	15723.584835475043	6.288493122058
1	27149	15724.794206532568	10.252527854271
1	27172	15733.080147679999	15.948702329317
1	27197	15745.251184653418	1.46408354193
1	27210	15750.049406700993	8.840916460357
1	27230	15758.941137417021	5.103536004946
1	27235	15761.110204497173	15.562204945201
1	27247	15776.328501187892	1.245247493498
1	27250	15778.043789229238	4.742326559037
1	27309	15808.969068838714	4.693008374609
1	27322	15813.242246172449	8.322610840171
1	27340	15823.771103799594	3.099436176093
1	27372	15844.609187379113	2.669638784286
1	27382	15851.322224284277	1.715503297374
1	27390	15854.659607086003	1.431709112227
1	27395	15865.105651821037	1.689505382255
1	27400	15868.50155983095	1.261015200429
1	27405	15870.218697403084	1.411265219375
1	27412	15875.52700964121	1.250207942538
1	27417	15877.051119761745	2.128339950504
1	27432	15882.090499305966	1.626516588777
1	27457	15890.426743340079	11.813960455164
1	27465	15895.809186547413	1.478347420506
1	27487	15911.745155567204	5.372855872523
1	27490	15913.048417748412	7.876320786588
1	27505	15927.324424208116	1.36718412172
1	27515	15932.183034938703	3.848085234304
1	27542	15946.803153447541	10.396261992421
1	27555	15967.473814432555	1.458015990257
1	27560	15969.607875399273	1.392912379093
1	27582	15989.68140336276	2.294008922707
1	27592	15993.826746351325	1.710111696459
1	27600	15998.164487771965	11.438299528775
1	27605	16003.44964697886	1.432293546945
1	27637	16023.042610503824	9.864293522596
1	27675	16040.458746864718	12.650217328534
1	27695	16053.381120823607	9.988163161116
1	27712	16087.88605083004	1.255968829058
1	27715	16089.39564338569	1.858894263448
1	27742	16110.051634030311	9.525064677355
1	27745	16111.721304719417	2.311285189181
1	27750	16116.827039365022	1.532143464498
1	27760	16123.594734227823	1.231039113365
1	27765	16127.264520109073	6.7161304423
1	27779	16130.534406249887	2.436781651021
1	27784	16132.031736942484	2.214936573152
1	27794	16135.727629415421	4.104726083978
1	27797	16137.352788608251	9.753357770293
1	27804	16139.256363705275	4.79300097438
1	27814	16142.465754176778	12.249248911923
1	27817	16144.263786974278	5.943089875297
1	27834	16155.554669447753	1.799441353671
1	27852	16161.410631231356	9.207293876074
1	27877	16171.14803668989	5.983012682722
1	27892	16176.118861001005	21.279494435054
1	27910	16182.496944872749	3.907641842174
1	27917	16186.865534899184	1.742421784252
1	27920	16188.096809048006	2.691414095146
1	27937	16194.575886140792	2.109573228229
1	27945	16199.223143966084	7.656504038069
1	27955	16209.987581633244	3.425446070755
1	27980	16221.294057940112	3.132280070072
1	27985	16235.157095288882	1.792050264776
1	27992	16250.473141216848	1.879478654452
1	27995	16251.891828340653	1.874542484785
1	28010	16278.006153765018	4.29533690416
1	28022	16292.801152488968	3.826449168312
1	28035	16298.373836725588	4.699405145027
1	28040	16319.953010598428	1.611504181474
1	28045	16323.803473075239	1.694173579663
1	28062	16333.951383011659	5.738915965112
1	28096	16345.815577657524	3.280516235856
1	28112	16352.714477985728	22.496694427861
1	28137	16376.264940417103	1.638701329567
1	28140	16378.059137640997	14.975293307444
1	28160	16395.005543045953	5.808372067777
1	28167	16409.345903817802	1.575264268368
1	28170	16411.333910816401	2.521997771159
1	28200	16426.734573734576	3.218340341184
1	28207	16428.913864141339	1.411979644187
1	28221	16431.492042742679	11.819358960445
1	28224	16433.066760212379	3.632321607135
1	28229	16434.7452570228	4.302641239952
1	28257	16443.934891563735	3.102202108033
1	28273	16447.200802085071	2.182081763524
1	28291	16454.308695038303	8.991812028858
1	28296	16455.718920137256	4.774498881239
1	28306	16458.930581427261	31.405059321661
1	28312	16462.481398430735	28.042407251459
1	28322	16465.858406785213	9.321359026743
1	28347	16485.102199243924	5.76413378296
1	28355	16488.388058966195	2.722914585466
1	28370	16498.239429573411	1.405982300639
1	28387	16510.036647178612	1.853254029527
1	28390	16511.520775290027	8.291626820518
1	28395	16514.049796276741	1.683745268546
1	28402	16516.026840455707	1.691588045843
1	28412	16519.63388311981	2.813587076108
1	28445	16531.025030366035	15.799335806583
1	28460	16546.466284898057	1.855424656533
1	28472	16550.669714047522	1.894049196318
1	28492	16558.393972758132	11.549144470064
1	28495	16560.289247123639	5.324966849386
1	28502	16566.375987786959	1.477450414374
1	28510	16569.735393572693	4.309564562975
1	28527	16581.019829142741	1.277630954422
1	28537	16583.970244335286	7.484040196516
1	28540	16585.748221662916	8.638666194473
1	28545	16600.400760070378	1.59116114825
1	28559	16612.350871835879	1.691491397822
1	28572	16616.875465456253	5.804000389982
1	28589	16620.884253683356	2.02615986364
1	28603	16624.388378478442	2.27605566766
1	28611	16627.900468311873	3.831716115312
1	28614	16629.775277338591	18.39133052049
1	28619	16631.119031905052	7.222860416814
1	28626	16632.867505325419	1.785875574905
1	28647	16642.583061769163	11.150724590525
1	28657	16646.734854016302	15.464630887548
1	28670	16651.243460268435	4.525121215707
1	28677	16653.348882024652	1.95433940161
1	28680	16654.821675139769	1.507518725198
1	28695	16664.929485163677	5.17633854188
1	28707	16672.744015688037	11.998945961605
1	28710	16674.056703510841	1.532642907548
1	28732	16688.796281938712	10.727194052987
1	28737	16690.260911473344	2.760082677507
1	28754	16695.086433182741	3.72574342402
1	28757	16696.774454263123	10.846642357483
1	28760	16698.145290271463	7.689294041095
1	28765	16702.102363928899	1.53542628549
1	28770	16705.549991363278	1.599644136801
1	28775	16710.828592470265	1.615445300564
1	28780	16713.596322039545	1.701091828384
1	28787	16716.588186021589	1.552526380494
1	28790	16718.568675253235	2.889760395343
1	28795	16736.081396855004	1.99423230309
1	28807	16746.537342057778	2.716300955576
1	28815	16750.509875575072	7.480897505917
1	28822	16753.899205116782	1.790288156271
1	28854	16763.087137742258	2.42555619064
1	28857	16764.461356030881	8.842726129664
1	28875	16770.62395689889	5.158847039619
1	28892	16776.808430524847	23.399755506998
1	28895	16778.272239215231	4.951728671231
1	28919	16797.161814372358	2.380353929286
1	28922	16798.445208796789	5.885160059262
1	28942	16810.173662814352	4.303853210238
1	28962	16816.244003377122	2.758592993154
1	28982	16826.558314334568	4.702726320937
1	28987	16828.059437822517	2.121657228698
1	29031	16846.7318742691	3.847639408395
1	29034	16848.669034258129	4.916527297094
1	29037	16849.961862813534	15.746797577962
1	29067	16873.506739167828	7.985376947356
1	29070	16874.769816736091	9.617268922553
1	29087	16888.49641979245	2.39377087444
1	29090	16889.751589785344	1.825820636185
1	29095	16894.958838668091	1.571722259745
1	29112	16908.833235591051	4.388292167708
1	29120	16913.212682722578	7.386339033354
1	29157	16937.598381471864	12.599752683816
1	29160	16939.23434898094	4.987740562111
1	29165	16951.993185013439	1.772465340234
1	29172	16956.499634893444	1.793140650727
1	29208	16970.063651930732	5.92404120954
1	29218	16973.178106304635	17.195677898379
1	29221	16974.901848464091	6.663075188608
1	29229	16977.626985876267	14.514096752367
1	29232	16978.960048438055	19.341636948116
1	29250	17003.903065202827	1.816491118632
1	29265	17013.518091875971	1.766439877684
1	29275	17016.613166391771	1.586318843901
1	29284	17019.610733308914	1.290069227479
1	29301	17024.27421231092	2.478561630524
1	29309	17027.301371531831	8.078568952117
1	29314	17028.909918257305	3.91413322425
1	29325	17032.909658027151	19.333123272074
1	29330	17036.759114673953	1.685718469322
1	29335	17051.161297768159	1.500547176786
1	29340	17053.186369223858	1.642546367086
1	29345	17073.176055270644	1.349759012833
1	29352	17077.494465012031	1.396624276042
1	29360	17085.455812109113	1.65378056597
1	29375	17091.095266766897	4.616164183851
1	29387	17104.80019631214	1.433968244866
1	29395	17108.705396595258	1.9253809046
1	29400	17111.771597499029	1.748477549478
1	29405	17128.690408548012	1.959192965738
1	29415	17134.970205412796	4.529357568379
1	29439	17145.093341035888	6.747223164456
1	29455	17154.729630875511	10.107504482429
1	29467	17163.449076325925	1.918967683986
1	29475	17167.409747944311	25.123003576619
1	29480	17177.485582271733	1.206877306849
1	29497	17187.662281621478	3.305369577717
1	29505	17190.820393112718	1.810989891535
1	29510	17193.315712585577	7.826829572206
1	29515	17202.346479766973	1.41579641588
1	29520	17205.024964931495	1.966123564355
1	29525	17212.172392528096	1.804792912863
1	29540	17219.198640126419	5.503898725367
1	29552	17232.234284458703	4.337018031833
1	29555	17234.060309199637	2.026729605018
1	29585	17252.431001570923	12.92152675485
1	29616	17261.35693758905	3.553653814062
1	29623	17263.208750477359	23.789740750454
1	29630	17264.793931673393	11.37672512991
1	29633	17266.680801100955	5.751934209256
1	29636	17268.074615292363	6.654549322156
1	29664	17278.389772516974	14.072421622065
1	29674	17281.460095542223	1.854589382912
1	29692	17288.470011396818	4.827528463702
1	29695	17290.366873754673	26.166670389681
1	29702	17292.271872369991	1.888192217425
1	29725	17305.513246517471	14.771580344477
1	29735	17310.992557699291	2.397367672759
1	29740	17313.423366154127	5.444621568444
1	29755	17322.915702838234	1.409342832491
1	29762	17329.33883497276	1.424229266308
1	29765	17330.574708924895	1.497413034114
1	29783	17338.664398712557	3.149004972403
1	29786	17340.166607414264	4.632537895236
1	29789	17341.525851561393	4.165611953267
1	29792	17343.068973459195	4.959021586778
1	29829	17370.747209861531	1.427283774316
1	29832	17371.959149478964	6.378532924871
1	29835	17373.548660484917	14.313693891456
1	29840	17389.405470638905	1.331304307655
1	29852	17412.397413281739	3.136486712296
1	29857	17414.084881549716	4.873674177937
1	29870	17421.306504805217	7.317980616982
1	29880	17431.09100778786	3.829614554671
1	29885	17441.999962473705	1.709004677273
1	29895	17461.987793168258	2.825960406073
1	29900	17469.335604887879	1.336604947038
1	29905	17477.579246067368	1.78300914932
1	29910	17481.017936917069	1.94166429434
1	29927	17494.415349908659	1.903886591829
1	29940	17498.827770598432	4.044085370015
1	29996	17534.127002019644	3.556329532637
1	30002	17536.8182302166	10.008845775017
1	30021	17541.449094017245	4.404536787399
1	30034	17545.980177743197	16.689683606441
1	30037	17547.308175576687	1.958513206813
1	30060	17557.12494768984	1.815857812017
1	30075	17565.493440690202	34.16996778099
1	30080	17575.992968986448	1.53249550499
1	30087	17595.126538054796	1.604577976279
1	30105	17605.667667490689	11.632736346243
1	30110	17620.559856175419	1.296334771253
1	30124	17624.652299166728	1.391969639994
1	30127	17626.43000250056	2.472901689328
1	30130	17628.41235558882	7.462933453961
1	30152	17638.548082040259	8.43387501504
1	30162	17641.370412211129	2.03942353313
1	30170	17644.639800435345	9.937189899417
1	30177	17651.442653194912	1.900179334171
1	30180	17652.665088372775	2.155825581549
1	30185	17656.195293133032	1.644526942819
1	30190	17659.153762406214	1.410350443237
1	30205	17666.19267885523	1.630028648861
1	30234	17675.071958965365	7.491125442082
1	30241	17676.589042625133	3.090902589022
1	30258	17681.701261742156	10.020318282748
1	30272	17687.596305725839	11.512903833724
1	30275	17689.369893515784	10.743314987979
1	30282	17696.384992050397	17.480612092644
1	30285	17698.100894516165	37.408917572477
1	30300	17705.870672783681	6.011140387703
1	30307	17719.099797064017	1.830947075225
1	30337	17732.068445327487	6.128460476203
1	30345	17736.889233527389	19.274921849684
1	30350	17738.387064612678	1.362615358457
1	30355	17745.250390628372	1.430519854836
1	30377	17764.492661324697	5.332618866232
1	30390	17769.163805847495	13.79126900747
1	30397	17771.225248100265	1.698675858416
1	30409	17774.291107136599	2.728350908369
1	30442	17793.039708320014	21.293387159274
1	30447	17794.468695692122	3.184403473266
1	30474	17802.115939210504	12.268875868432
1	30508	17811.824710179455	9.241330609866
1	30514	17814.576069655604	28.564161272502
1	30524	17817.648354609273	7.04593221451
1	30532	17820.275235513187	21.350323179734
1	30535	17822.104283072389	13.313937466494
1	30542	17828.335746963652	1.971393582784
1	30552	17831.749760271194	3.112920747526
1	30562	17834.915510393373	7.035187597101
1	30565	17836.874847309171	3.134129084405
1	30577	17844.711886258462	3.824956340151
1	30580	17846.445003362411	2.485244296991
1	30611	17856.022266051903	2.935217617269
1	30648	17867.517718370616	7.457701561004
1	30653	17869.035224544428	2.042342386376
1	30668	17874.32963999173	22.216390013971
1	30678	17877.344646851889	10.258726190868
1	30686	17879.895678639583	31.679918199219
1	30689	17881.28817526529	10.70315591968
1	30694	17882.564730287142	9.184475146623
1	30715	17890.58635763599	1.967120141747
1	30727	17894.228463853778	9.776647109908
1	30744	17899.488436537305	8.204022680223
1	30772	17908.765711484918	5.940182723259
1	30795	17937.966346505075	1.610054975748
1	30815	17960.483057461237	6.512657017857
1	30825	17965.595369783037	5.041889947104
1	30832	17967.851301703148	1.499180141464
1	30867	17982.395083801858	15.097918191751
1	30889	17991.379899744252	5.080162568019
1	30892	17992.939901545579	3.406195879839
1	30905	17998.462511615736	1.676361196635
1	30932	18013.881667860636	8.010746301597
1	30935	18015.199239329474	1.579335508117
1	30945	18029.633044105665	2.858314579116
1	30967	18037.861540132443	6.512225534006
1	30987	18045.129600139465	7.516442652906
1	30995	18049.599676172758	5.577724025758
1	31016	18066.65700637992	2.43401649313
1	31029	18071.125465595308	4.822456309805
1	31034	18072.615327056456	5.28497522553
1	31037	18073.940611756365	9.281212318988
1	31044	18075.858705738518	3.520114386115
1	31047	18077.443728581402	3.371826052593
1	31050	18078.952748546894	18.846066998607
1	31055	18081.502729197968	1.299240350537
1	31065	18090.032161739792	1.521344764158
1	31082	18098.044423287721	15.953059052935
1	31085	18099.701490927474	5.229513755989
1	31092	18118.154660805965	1.624839140661
1	31097	18119.56649000747	2.739533604983
1	31100	18121.289961433316	2.358260513874
1	31124	18136.302619846349	1.959247064032
1	31129	18137.98768764287	11.947994186535
1	31137	18141.425949775984	3.715772328418
1	31140	18143.245895931681	7.034743910404
1	31170	18158.041248868041	13.028600185788
1	31175	18161.538028038144	1.74479106497
1	31192	18171.963942252841	4.532863258758
1	31197	18173.430182757784	4.317400563499
1	31227	18183.29403280075	10.651816551858
1	31230	18184.653135641099	1.566469402342
1	31235	18186.720803651005	1.874700690247
1	31242	18194.332561754938	1.754281702638
1	31254	18197.468288695756	2.400855653101
1	31304	18220.250602441966	26.254999319087
1	31307	18222.226983824312	6.033732393756
1	31315	18229.267510992168	19.472287955394
1	31320	18238.940721152203	1.581081099249
1	31332	18245.384726134561	3.348597263953
1	31335	18246.994535935543	4.211776092034
1	31345	18255.812440008282	3.063590433669
1	31364	18287.448987385609	2.967413038632
1	31382	18294.858617732627	8.51152827027
1	31397	18302.312571653853	2.808974445471
1	31420	18311.381136246765	12.051711616903
1	31435	18317.611245518261	5.387280822394
1	31440	18328.733763932416	1.570372325741
1	31450	18341.716287150296	3.917881005756
1	31460	18345.724073328011	4.003423382605
1	31469	18348.873799039312	1.92351362668
1	31496	18356.983538020664	9.574875466391
1	31499	18358.424854246975	2.485349417428
1	31505	18361.771817526669	5.40958121688
1	31517	18365.475162819712	16.883856100556
1	31520	18367.020823370604	4.859863146208
1	31537	18379.756089061824	3.652294285085
1	31540	18381.41094092424	8.414828762899
1	31575	18413.573115703255	1.299722819403
1	31637	18434.256643465761	5.438712792635
1	31640	18435.806875664782	13.256986521496
1	31662	18442.159653743026	5.541104535611
1	31682	18449.080150053506	15.919668972182
1	31687	18450.871456476902	23.520523063755
1	31690	18452.299322096487	23.695829827255
1	31693	18453.992156043691	13.579547749869
1	31703	18457.798865776924	3.334745557672
1	31737	18470.713463982981	11.864677716527
1	31760	18486.701679708929	1.263143329509
1	31770	18496.719447314681	5.091156310401
1	31780	18505.647870941886	3.419401677738
1	31790	18510.483287119444	1.304426569678
1	31834	18529.831475622933	3.120678126596
1	31859	18539.047867283661	13.918067754657
1	31862	18540.324151148338	21.966647333447
1	31865	18542.165433588315	6.174882802181
1	31870	18557.076053585795	1.434266834892
1	31875	18569.085169520888	1.873285760172
1	31887	18587.212168000117	1.551824709401
1	31922	18613.612523906136	1.733998898976
1	31942	18620.496807364242	22.804116816443
1	31950	18626.080351328415	9.853742424393
1	31971	18638.306779552074	10.219212851668
1	31974	18639.511838618116	2.095543911055
1	31981	18640.957368529411	3.127176529823
1	32019	18653.466487220544	12.969055321425
1	32022	18655.044755116347	3.49144344764
1	32032	18658.569562211874	9.855509370378
1	32040	18662.434300763651	24.396159439916
1	32047	18669.571210118234	1.710365104862
1	32067	18675.569466672316	5.110439438073
1	32075	18678.828042545765	2.952503257172
1	32085	18697.638197068993	1.44495756086
1	32102	18704.146373602066	4.708518320322
1	32141	18716.464621669265	7.335697123894
1	32144	18717.702152494925	17.104023500145
1	32155	18722.281945009555	11.300650942215
1	32160	18727.391807098286	12.262158140578
1	32165	18732.76445450113	1.828864011355
1	32170	18740.243503892084	1.214841873199
1	32189	18748.303689575507	5.740347050689
1	32216	18756.693182323626	12.361809071723
1	32236	18762.335184082328	3.880472008325
1	32244	18765.027803000374	12.228589082535
1	32255	18769.317706158323	14.823142123356
1	32277	18776.08592633074	20.328748941979
1	32287	18779.332396912853	1.915823231108
1	32295	18787.345464525364	1.399605484866
1	32302	18789.84311056105	1.275949010067
1	32315	18796.046208464336	3.073782698604
1	32325	18802.418882993844	4.585026420032
1	32347	18817.666694028754	1.445752992667
1	32355	18820.416569765922	2.517525431103
1	32370	18828.808256041429	4.041862932247
1	32380	18835.242101736444	3.534670280469
1	32427	18861.236588819573	3.056217326487
1	32430	18863.046078832882	13.658594655665
1	32450	18877.467128543607	3.221847004047
1	32465	18889.780925953376	4.57905728817
1	32477	18894.683157055009	2.716997786582
1	32489	18897.892885219235	12.245050823639
1	32502	18901.752586631219	6.342552315255
1	32520	18908.211649582063	15.444633916775
1	32532	18917.426935424151	3.977521871894
1	32537	18919.374572661387	3.302432988439
1	32540	18921.192535300793	3.021649645087
1	32545	18925.297128115778	1.404538983665
1	32550	18930.0008315396	1.840651725978
1	32572	18944.397734301348	5.527878244268
1	32596	18950.961978535829	13.079480356642
1	32599	18952.918534533223	8.833903229676
1	32602	18954.811892568609	7.313166699931
1	32622	18961.776193324141	2.545500785793
1	32632	18968.479038490569	1.994582684524
1	32655	18990.397360297479	2.805376328967
1	32662	18992.348427893538	1.741672400944
1	32670	18995.828998266593	11.305750611015
1	32685	19006.133520260535	2.107619214866
1	32704	19011.593270142543	4.795247773454
1	32714	19014.766532597485	13.491755646184
1	32717	19016.750220764781	6.146948837981
1	32735	19038.577463647616	1.742357031442
1	32765	19049.935925800035	16.297138141351
1	32777	19054.16283503276	3.556196210942
1	32780	19056.079790770902	2.899900514063
1	32795	19064.563490871893	2.65312350687
1	32812	19076.402786892648	16.252323627101
1	32845	19088.361794636018	27.295943909493
1	32850	19090.205069204953	5.741253436022
1	32855	19099.206726295316	1.686522931978
1	32889	19114.727693383385	3.983233715086
1	32895	19117.60137987676	5.65554000129
1	32902	19119.067137690623	6.521025685276
1	32905	19120.824326395047	7.892925170411
1	32908	19122.667578056258	18.126183746465
1	32914	19125.34785939603	6.89874947019
1	32944	19135.041835339729	24.240311121077
1	32974	19143.530656037096	12.749296728955
1	32990	19150.797126265219	36.605799595466
1	33012	19159.584979909712	7.515247461588
1	33029	19164.072295278177	3.422117482083
1	33042	19168.065941838414	8.798873907676
1	33052	19173.759688419156	13.228456255748
1	33055	19175.396496518009	2.541662141709
1	33060	19183.206266943565	1.265855331905
1	33065	19186.817391466944	1.239421084523
1	33070	19194.144524048035	1.275007062592
1	33080	19200.669679791594	3.809054757671
1	33102	19222.825565572061	13.7245722583
1	33139	19233.770867679246	10.505493561281
1	33142	19235.54675625933	12.074009287769
1	33147	19236.962551696949	13.449263104732
1	33159	19240.503414512218	15.611211083275
1	33162	19242.232803694137	20.408538766457
1	33170	19247.521256444143	11.175324160906
1	33190	19254.894615321828	6.658027085004
1	33212	19266.130440057454	6.831100813512
1	33215	19267.943219339115	8.232689416478
1	33230	19285.795262587705	1.313660273328
1	33235	19310.232586568588	1.285086588189
1	33247	19318.802116416817	3.72015735917
1	33250	19320.215046969292	1.464174637468
1	33255	19322.894705061455	1.22087728139
1	33265	19329.191721020809	3.300371088757
1	33279	19337.896492995482	4.088331167275
1	33295	19344.138475521155	7.868491053972
1	33300	19346.965584314657	10.735166191844
1	33313	19349.282144574309	1.864040023647
1	33316	19350.53705375609	2.788424814814
1	33329	19355.413052513869	6.740104701615
1	33351	19362.204665626631	2.399641677748
1	33354	19363.646958296978	5.648761433517
1	33362	19366.797612458327	1.846702526368
1	33409	19398.478427179346	1.936271499724
1	33424	19403.497575102935	6.702187004686
1	33427	19404.74989691172	16.852163316945
1	33437	19407.736604413578	2.874325713051
1	33447	19439.24109360372	1.239829728939
1	33450	19441.080135723216	2.29586211452
1	33460	19447.602474667891	3.561360789237
1	33479	19455.797793812959	1.676389015211
1	33484	19457.428066012359	3.21903677005
1	33487	19458.628409114576	7.364978141515
1	33502	19463.535483539945	6.989707494478
1	33521	19468.854287720008	3.949497826636
1	33527	19471.549517951069	10.314207110132
1	33552	19480.830127511949	14.570585471123
1	33555	19482.067619787373	22.467733809974
1	33574	19491.991191762489	1.750356638383
1	33594	19499.258320605744	3.582966225223
1	33597	19500.480338051159	10.128076785648
1	33625	19515.702345468982	29.245534874206
1	33630	19519.332851949959	1.249390292913
1	33640	19525.488945891473	3.131886481354
1	33645	19530.563801629641	1.94661264047
1	33650	19533.438854673452	1.838315885514
1	33672	19542.006139845871	2.898572326075
1	33685	19547.517210886957	9.045615151384
1	33710	19567.209742787646	13.673283141849
1	33732	19580.737452985547	1.922725760564
1	33749	19585.164617078759	1.523064268008
1	33754	19586.739461530008	14.163853301864
1	33759	19588.632887322091	2.021276221676
1	33762	19590.308127094254	2.812963949192
1	33779	19595.891561192654	2.920593725426
1	33784	19597.878598708667	6.495122809346
1	33787	19599.295343314491	1.604829651611
1	33800	19621.292769616953	3.623202979237
1	33829	19631.286722681399	8.524676175812
1	33832	19632.738891794819	7.134568042286
1	33840	19640.482278116397	1.289811101183
1	33889	19683.702099060524	14.784702175487
1	33892	19684.962333732541	8.26192090735
1	33895	19686.179129941645	17.987678028837
1	33900	19692.820563304135	1.830389262177
1	33905	19702.107202335633	1.458458758704
1	33910	19714.946849557766	1.536646227911
1	33920	19726.226409498451	5.150495057011
1	33925	19735.431298957562	1.63119845856
1	33934	19739.84228129258	1.252520524338
1	33937	19741.16876917725	1.827492668508
1	33945	19746.599920306484	7.017011051596
1	33955	19759.189120886567	6.177793558244
1	33960	19775.648704762358	1.608254432306
1	33967	19781.372928579975	1.606349921785
1	33970	19783.246725023616	3.319444592562
1	33985	19788.471352034436	5.024084299747
1	34005	19804.990995529971	3.395398270139
1	34028	19814.017792876457	3.251053387663
1	34033	19815.454749642705	4.439275574822
1	34038	19817.082314360534	3.086663888812
1	34041	19818.981480664221	3.627091707639
1	34071	19829.362908332256	13.651677444015
1	34081	19832.575401766618	9.156624633849
1	34098	19837.186334934849	10.356576611723
1	34106	19840.464114567842	15.760235030005
1	34111	19841.674181640539	7.041899940867
1	34114	19843.2537455911	12.250584638995
1	34125	19848.198809695246	14.235215609856
1	34135	19856.357721724551	3.373759467324
1	34165	19867.089135244014	10.519227546715
1	34170	19868.683307586574	1.265549601056
1	34180	19878.607715489445	3.773696273172
1	34187	19882.404727592312	1.790569019318
1	34204	19891.415818156951	1.289891356602
1	34207	19892.629977214427	1.987050215691
1	34232	19902.790018187056	2.960896798584
1	34297	19920.030449812079	22.041541551612
1	34307	19923.460578906128	11.278019656804
1	34317	19926.706656002218	7.480997604695
1	34323	19929.995616858603	16.757475719256
1	34354	19937.774312271886	6.318882648123
1	34357	19939.055929830075	32.428975712028
1	34365	19942.053242287935	8.107949771795
1	34368	19943.693314752505	13.485391802752
1	34371	19944.967431262285	46.244688945698
1	34409	19957.558619992399	11.854816631961
1	34412	19959.152318759599	40.34083716785
1	34420	19963.16910565465	1.485005754419
1	34425	19972.768484924251	1.43884451203
1	34435	19976.639740410992	3.524183016409
1	34471	19993.36372606848	1.731849616289
1	34474	19994.774959595507	8.909080731778
1	34485	19999.3370763816	6.117085973634
1	34497	20009.261476232545	1.435227255337
1	34500	20010.504182573469	1.852593219128
1	34524	20020.444136097534	4.073867159523
1	34527	20021.725132797724	8.308514214222
1	34539	20049.853707615531	1.81970550213
1	34542	20051.056329642481	2.631480147942
1	34545	20052.698496910616	3.614417941575
1	34599	20076.834802245064	8.509440322791
1	34602	20078.416321261315	16.429978485166
1	34621	20082.704229771062	2.920375360676
1	34636	20087.625329652331	7.131874974166
1	34650	20093.457564907543	1.228390076011
1	34657	20095.128626233567	8.086390947847
1	34662	20096.433149912809	16.81549416853
1	34665	20097.882661763062	1.904913943044
1	34674	20100.197068272057	1.72395376116
1	34677	20101.547843444618	2.219028352736
1	34680	20102.980445257845	3.634191567533
1	34692	20108.789113905411	4.559561316542
1	34709	20113.60465709737	5.213754909237
1	34740	20124.484290272579	11.682749176564
1	34745	20127.778460521712	8.893890717197
1	34755	20133.757424372591	23.553492887079
1	34772	20139.783653135245	1.871285727557
1	34780	20145.194978055036	14.486654411896
1	34787	20158.941620639853	1.582104890235
1	34790	20160.293795352384	2.459143435535
1	34806	20182.479542635353	3.536611331683
1	34809	20183.963659667568	4.630137002379
1	34814	20185.50519994271	4.400906564698
1	34831	20190.845423171828	2.931591336357
1	34841	20193.98180012961	5.491896984578
1	34844	20195.268369216072	9.871557046575
1	34847	20197.025387110347	5.824499765121
1	34850	20198.673772130879	19.754236216471
1	34887	20224.507917530832	11.974330580601
1	34897	20227.4597981628	8.118189471641
1	34902	20229.415908676383	9.008257152745
1	34927	20238.681442750316	5.533704859218
1	34939	20242.05105861656	2.933893693887
1	34944	20243.50222550172	3.579033053689
1	34960	20250.812516793015	7.751514268099
1	35004	20267.992908882643	35.959381729865
1	35007	20269.475370560507	3.49893680453
1	35045	20314.020957297742	1.926534819789
1	35065	20325.790846178391	9.315287781041
1	35072	20333.938033953703	1.697326673009
1	35082	20337.962921183304	1.815631386451
1	35090	20341.228653347246	8.760982873373
1	35095	20344.44418602983	1.945790278167
1	35100	20373.360866015538	1.916080030426
1	35105	20375.972260255483	1.348567459174
1	35120	20385.619226021786	6.365998565004
1	35132	20390.639388951033	4.95070420633
1	35137	20392.349418782189	2.936440036628
1	35140	20394.279626791298	3.464418068586
1	35164	20407.940986704639	1.424746299349
1	35167	20409.302284200675	9.387975792112
1	35219	20426.796676233678	2.105337640782
1	35229	20430.095853820524	25.543475814665
1	35239	20433.250407182506	2.706728941527
1	35250	20438.15226096314	24.007721694698
1	35257	20440.490257380539	1.799218660034
1	35277	20448.700056513009	1.985499070957
1	35290	20459.317653026081	11.170047236521
1	35300	20471.135376923743	2.267342252343
1	35305	20474.466548274692	1.467731953226
1	35310	20478.10405051668	1.742793879472
1	35320	20498.191049768295	3.626773693732
1	35325	20500.166909265449	1.312276667729
1	35330	20511.725916043891	1.298866216466
1	35355	20524.786529373968	6.33025948498
1	35382	20544.609754490939	9.530328502839
1	35397	20549.984707345527	1.906631458891
1	35417	20556.146295366724	1.858692943496
1	35420	20557.525844765742	5.609356315993
1	35425	20559.920103126383	28.276607045942
1	35451	20572.820901584241	2.20341630018
1	35468	20577.7252903778	4.047979177863
1	35471	20579.005186240551	9.267248522491
1	35474	20580.784224221659	4.487086508753
1	35477	20582.317598932413	9.607892014993
1	35500	20599.444127283099	1.360611190461
1	35505	20604.614134986901	1.843524227105
1	35510	20606.881210865171	1.269467110187
1	35515	20609.680107712324	1.844518505968
1	35525	20618.52958710534	3.015463630103
1	35537	20634.649212276405	1.787175583094
1	35540	20635.860912442794	6.529721456283
1	35572	20652.293756238212	11.176617354111
1	35592	20665.36549469046	2.13912075008
1	35610	20681.962002330039	6.602424453014
[...]
8	36733	21414.661209606125	1
8	36751	21421.284748535535	0
8	36770	21427.533235045343	1
8	36776	21430.944106312769	0
8	36785	21432.431713131286	1
8	36786	21433.8467656675	0
8	36795	21436.23852533873	1
8	36796	21436.616379037613	0
8	36897	21498.879248744837	1
8	36901	21500.619497050954	0
8	36945	21520.969704764504	1
8	36946	21521.014171668434	0
8	37010	21550.849511016744	1
8	37012	21550.859873613296	2
8	37013	21552.674672376705	1
8	37022	21556.077593896112	2
8	37023	21556.090949981441	1
8	37034	21558.524874783334	2
8	37063	21568.971720254761	1
8	37081	21575.769201764245	0
8	37092	21579.943363061255	1
8	37096	21583.206234717448	0
8	37147	21611.856406039379	1
8	37151	21613.735415341008	0
8	37155	21615.054975222035	1
8	37156	21615.664926313657	0
8	37160	21617.133399820081	1
8	37161	21617.399270328369	0
8	37165	21617.523063678003	1
8	37166	21619.376828786593	0
8	37280	21664.572257527228	1
8	37281	21665.023951489658	0
8	37397	21767.246975953943	1
8	37466	21791.817781310938	0
8	37490	21800.639838983041	1
8	37491	21802.456024646315	0
8	37500	21804.934888621604	1
8	37501	21805.990188562985	0
8	37510	21808.3352317892	1
8	37511	21809.04258112565	0
8	37529	21813.055532431033	1
8	37551	21821.630221883322	0
8	37585	21849.34600948778	1
8	37586	21849.847179525657	0
8	37630	21904.754417923399	1
8	37631	21905.159426354711	0
8	37650	21912.131061065923	1
8	37651	21912.472837900412	0
8	37662	21914.675582256907	1
8	37706	21929.762624063199	0
8	37805	22007.757029671644	1
8	37811	22010.100315500461	0
8	37817	22010.308175223979	1
8	37826	22014.824848736115	0
8	37830	22015.009831647484	1
8	37831	22016.031056342311	0
8	37835	22016.511817960635	1
8	37836	22017.640546890013	0
8	37840	22018.692322943467	1
8	37841	22019.360295199826	0
8	37855	22024.096171839058	1
8	37861	22025.300448999049	2
8	37871	22029.402767711956	3
8	37875	22030.915024477335	2
8	37893	22037.186746178286	1
8	37897	22037.975366608621	2
8	37903	22040.864230246747	1
8	37907	22041.39659956841	2
8	37911	22042.75369994979	3
8	37941	22051.713439330137	4
8	37942	22052.652560885155	3
8	37945	22053.869497156606	2
8	37963	22057.828539037417	3
8	37968	22059.177709601001	4
8	37982	22065.921777352595	3
8	37990	22069.001432566622	2
8	37998	22072.615634351128	1
8	38001	22074.140345681736	0
8	38005	22074.29086636969	1
8	38006	22076.002699652405	0
8	38010	22076.752514720347	1
8	38011	22077.610403301844	0
8	38015	22079.401254019108	1
8	38016	22079.604500285254	0
8	38030	22087.099873343834	1
8	38031	22088.009122140502	0
8	38100	22156.465828032936	1
8	38106	22158.851534516279	0
8	38215	22252.780432603522	1
8	38216	22254.115426667503	0
8	38362	22368.169939940486	1
8	38374	22371.852207053211	2
8	38378	22374.051404150618	1
8	38387	22376.28247881933	2
8	38388	22377.202473110562	1
8	38392	22377.236496190092	2
8	38396	22378.461978584715	3
8	38401	22378.904665871507	4
8	38402	22380.029131843378	3
8	38405	22381.595113337641	2
8	38416	22383.364205402964	3
8	38425	22387.661512759742	2
8	38428	22389.021173357446	1
8	38432	22389.868022630317	2
8	38433	22390.859517478612	1
8	38436	22392.7022977984	0
8	38440	22393.443207441592	1
8	38441	22394.539018372861	0
8	38450	22397.100330619664	1
8	38451	22398.301531212216	0
8	38455	22399.131935160131	1
8	38456	22400.087552668338	0
8	38460	22401.192717419349	1
8	38467	22402.296083692006	2
8	38498	22412.515551050749	1
8	38501	22414.237063657862	0
8	38540	22432.773494129976	1
8	38541	22432.891819969408	0
8	38550	22435.762758078376	1
8	38551	22436.965297979333	0
8	38570	22444.296213737701	1
8	38571	22445.474650562399	0
8	38615	22461.080889961339	1
8	38616	22461.602154341501	0
8	38945	22666.356133662821	1
8	38946	22666.596222315857	0
8	39160	22848.014757307062	1
8	39161	22848.557756922212	0
8	39200	22880.25809567447	1
8	39206	22883.800868474359	0
8	39285	22920.161944357898	1
8	39286	22920.501173509887	0
8	39330	22941.696508129889	1
8	39331	22942.384524912864	0
8	39365	22963.966919572958	1
8	39366	22965.259201622786	0
8	39375	22969.538256601986	1
8	39377	22969.623637112458	2
8	39378	22969.834873595014	1
8	39392	22973.487307598562	2
8	39393	22974.714108990431	1
8	39402	22976.050555910808	2
8	39413	22981.352294854373	1
8	39416	22982.985774465017	0
8	39425	22985.844432439931	1
8	39426	22986.299088040292	0
8	39440	22990.799457833436	1
8	39441	22991.656830457205	0
8	39445	22991.908136851278	1
8	39446	22992.91817286236	0
8	39455	22994.562830272168	1
8	39456	22996.167115738223	0
8	39462	22997.351282935643	1
8	39471	23001.118599336202	0
8	39515	23022.478609785056	1
8	39516	23023.76062436651	0
8	39615	23064.65748845922	1
8	39616	23065.474791662204	0
8	39627	23067.778109212117	1
8	39646	23074.355810848059	0
8	39650	23075.270602037213	1
8	39651	23076.110901578324	0
8	39712	23118.098878819776	1
8	39736	23127.364794392443	0
8	39740	23128.876397514096	1
8	39741	23128.879137282005	0
8	39857	23195.486050826117	1
8	39871	23201.733445893627	0
8	39885	23205.630832483463	1
8	39886	23207.513521750545	0
8	39915	23226.409540035854	1
8	39931	23231.965207496307	0
8	39985	23272.871823516413	1
8	39986	23273.222787479751	0
8	40000	23277.783107161605	1
8	40001	23279.07995622517	0
8	40012	23281.287701319877	1
8	40016	23283.567015849849	0
8	40030	23289.18650632964	1
8	40031	23289.38538665098	0
8	40105	23331.972658342613	1
8	40106	23333.697723111734	0
8	40172	23385.963250110119	1
8	40186	23391.70064861305	0
8	40262	23458.710575263729	1
8	40281	23465.282315980024	0
8	40300	23472.697433990997	1
8	40301	23473.478207178781	0
8	40372	23531.819482911367	1
8	40381	23535.944697123424	0
8	40462	23622.397595939122	1
8	40466	23624.625773096338	0
8	40475	23628.280560800466	1
8	40476	23629.217124344709	0
8	40480	23629.314969601574	1
8	40481	23630.96267970104	0
8	40492	23633.754008708757	1
8	40534	23646.18960235179	2
8	40543	23651.344587479647	1
8	40566	23660.009808707725	0
8	40618	23673.956550423947	1
8	40666	23693.152265109049	0
8	40680	23697.11366947112	1
8	40681	23698.703001252382	0
8	40890	23811.592864655971	1
8	40891	23812.828666222974	0
8	40955	23856.330430919343	1
8	40961	23859.067816240567	0
8	40967	23859.965807762616	1
8	40971	23861.905576194304	0
8	40985	23867.713157458669	1
8	40986	23868.506115648465	0
8	41060	23917.833008626703	1
8	41061	23919.249789094078	0
8	41150	23969.47986337974	1
8	41151	23970.612653314536	0
8	41320	24042.940208517902	1
8	41321	24044.128549476324	0
8	41337	24049.067879591182	1
8	41371	24060.070379311321	0
8	41432	24080.27395493094	1
8	41446	24085.839237192429	0
8	41482	24099.572095726483	1
8	41486	24101.384727065033	0
8	41520	24122.861984135051	1
8	41521	24124.544163700537	0
8	41550	24159.135887510328	1
8	41557	24160.801399164094	2
8	41558	24161.689075588202	1
8	41567	24164.290499307283	2
8	41568	24164.785535866348	1
8	41576	24167.724739811895	0
8	41580	24168.611457534129	1
8	41581	24169.365903946152	0
8	41595	24173.390152399705	1
8	41596	24174.010680950856	0
8	41610	24183.648427787931	1
8	41611	24185.048004435604	0
8	41620	24187.818323679267	1
8	41621	24187.903702474428	0
8	41720	24258.83723189449	1
8	41736	24266.527570682417	0
8	41750	24270.474473692533	1
8	41752	24270.780859823945	2
8	41753	24271.256838952776	1
8	41762	24273.534139584255	2
8	41763	24274.752018238258	1
8	41766	24276.573593777258	0
8	41899	24331.095649391813	1
8	41941	24342.721213430936	2
8	41993	24360.323057640421	1
8	42011	24366.251769759396	0
8	42020	24368.586026917434	1
8	42021	24369.03113273185	0
8	42075	24405.962026953493	1
8	42096	24412.403781152965	0
8	42105	24416.020669054525	1
8	42106	24416.234143903097	0
8	42120	24420.68334147825	1
8	42121	24421.18864509928	0
8	42125	24421.942901756456	1
8	42126	24422.937146378299	0
8	42160	24441.273738451223	1
8	42161	24442.109268610603	0
8	42380	24666.38458325872	1
8	42381	24667.855502422562	0
8	42405	24693.21025015486	1
8	42406	24693.82402593189	0
8	42565	24796.800775966546	1
8	42566	24798.413100236187	0
8	42595	24811.286090964396	1
8	42596	24811.814741837858	0
8	42610	24815.628338502364	1
8	42611	24816.319179929859	0
8	42640	24848.574923244117	1
8	42642	24848.878672409371	2
8	42643	24850.325056782797	1
8	42651	24854.031206894353	0
8	42659	24854.706869886706	1
8	42664	24856.578906873344	2
8	42691	24864.406686456529	3
8	42700	24868.935809861556	2
8	42708	24872.102390296259	1
8	42711	24873.833653287278	0
8	42750	24901.898681855801	1
8	42751	24903.377027802307	0
8	42760	24906.602293237019	1
8	42761	24906.886510677721	0
8	42795	24923.075023280003	1
8	42801	24925.912031158036	0
8	43045	25094.706832951457	1
8	43051	25097.407136549393	0
8	43080	25109.316365129038	1
8	43081	25111.099890230127	0
8	43110	25144.045691623103	1
8	43111	25144.731260395554	0
8	43145	25162.984151347269	1
8	43147	25163.521805511238	2
8	43153	25165.384640707368	1
8	43156	25166.94037271283	0
8	43162	25167.21387546256	1
8	43166	25170.071566254192	0
8	43240	25225.434856657081	1
8	43241	25227.120667127331	0
8	43260	25237.89184507845	1
8	43267	25239.570381665467	2
8	43268	25240.620591547503	1
8	43282	25244.055998232272	2
8	43283	25245.164559145621	1
8	43287	25245.395770359842	2
8	43306	25251.148680548646	3
8	43311	25252.659691821249	4
8	43312	25253.424207289121	3
8	43315	25255.387485523499	2
8	43318	25257.002900371864	1
8	43321	25258.453922634549	0
8	43325	25259.619945475137	1
8	43326	25259.918692070968	0
8	43330	25259.982200112131	1
8	43336	25263.003654629155	0
8	43375	25280.864029738394	1
8	43376	25282.516263381977	0
8	43464	25330.443954303284	1
8	43486	25339.097041218007	0
8	43689	25460.074558229336	1
8	43716	25471.74252830287	0
8	43725	25475.949696754619	1
8	43726	25476.559778868031	0
8	43730	25476.858092794938	1
8	43736	25479.232140333388	0
8	43755	25486.161027792975	1
8	43756	25487.659445470438	0
8	43780	25495.19556996767	1
8	43791	25500.222059474202	0
8	44010	25648.657185148201	1
8	44011	25649.7738207012	0
8	44025	25654.547977498132	1
8	44026	25656.157289174931	0
8	44030	25656.423131819558	1
8	44031	25657.502866962725	0
8	44035	25658.424691471955	1
8	44036	25658.807743125768	0
8	44055	25680.949241915135	1
8	44056	25681.542530243463	0
8	44080	25697.803992501222	1
8	44081	25699.099766003034	0
8	44105	25707.325794830799	1
8	44106	25707.9990073821	0
8	44325	25857.310449320733	1
8	44326	25858.208076772959	0
8	44450	25988.314237497005	1
8	44451	25989.554326819657	0
8	44665	26103.82424887314	1
8	44666	26104.035818432453	0
8	44685	26114.830399538638	1
8	44687	26115.119445103774	2
8	44688	26115.978996363448	1
8	44691	26117.545671275238	0
8	44700	26119.695148012184	1
8	44701	26121.133565359062	0
8	44710	26124.790974745257	1
8	44711	26124.937911002942	0
8	44730	26135.089083564186	1
8	44731	26135.350331222029	0
8	44740	26137.293463711048	1
8	44741	26138.816508581439	0
8	44750	26140.289126860685	1
8	44752	26141.178224871271	2
8	44753	26142.014928896116	1
8	44764	26144.426306336297	2
8	44766	26144.708820274621	3
8	44780	26150.542433131063	2
8	44788	26154.097949325988	1
8	44797	26155.95799981519	2
8	44798	26157.252069933476	1
8	44801	26158.571854129756	0
8	44815	26162.097200429856	1
8	44826	26166.705463398392	0
8	44982	26254.92045275117	1
8	44986	26257.32172860455	0
8	45000	26291.973054471494	1
8	45001	26292.969821754085	0
8	45010	26295.115934949936	1
8	45011	26296.295582571613	0
8	45020	26299.863683800842	1
8	45021	26300.49267905235	0
8	45067	26327.950760187113	1
8	45071	26331.103875419404	0
8	45417	26537.70385458905	1
8	45421	26540.146231141637	0
8	45552	26666.708183469755	1
8	45556	26668.552755526436	0
8	45710	26790.663896961153	1
8	45726	26798.150981932489	0
8	45740	26802.465787282237	1
8	45741	26803.544753264168	0
8	45745	26804.211334909982	1
8	45746	26805.144521015415	0
8	45775	26820.546942069182	1
8	45777	26821.263347108395	2
8	45778	26821.527694618411	1
8	45786	26825.214440826036	0
8	45795	26832.908391995456	1
8	45796	26832.949173991829	0
8	45912	26906.586667678006	1
8	45996	26933.304152851902	0
8	46050	26963.432671299933	1
8	46051	26964.204898091699	0
8	46112	26991.805981440492	1
8	46156	27007.157100139901	0
8	46275	27152.707667005651	1
8	46276	27153.010185697812	0
8	46285	27157.242987303827	1
8	46286	27157.849342019405	0
8	46305	27169.523049607114	1
8	46306	27170.140102007044	0
8	46445	27247.022853102873	1
8	46446	27248.76590445928	0
8	46470	27270.706975895159	1
8	46471	27270.772127449756	0
8	46620	27408.888071977934	1
8	46621	27409.69106805948	0
8	46705	27475.663696681389	1
8	46706	27475.92779516559	0
8	46860	27551.173332631847	1
8	46861	27552.427910077438	0
8	46875	27555.590763754417	1
8	46877	27555.858612537696	2
8	46879	27555.906782230454	3
8	46880	27556.949289672593	2
8	46888	27559.992017572889	1
8	46892	27560.090374782917	2
8	46893	27561.502641397113	1
8	46896	27563.27931964449	0
8	46915	27574.82655347686	1
8	46916	27575.876220771291	0
8	46995	27658.526976075741	1
8	47001	27661.503631612099	0
8	47100	27704.05967158968	1
8	47106	27707.195426798687	0
8	47115	27712.83203763866	1
8	47116	27713.007732487144	0
8	47250	27788.33175128404	1
8	47251	27789.47295125668	0
8	47270	27794.246077287011	1
8	47271	27796.153497550175	0
8	47335	27825.554091345266	1
8	47336	27826.544718432593	0
8	47360	27842.195224332524	1
8	47361	27843.602469387877	0
8	47375	27853.474531082601	1
8	47376	27854.68272030236	0
8	47525	27960.278309447993	1
8	47526	27961.47614792759	0
8	47549	27970.815737017659	1
8	47561	27975.777696233035	0
8	47570	27977.567968584217	1
8	47571	27979.276050638572	0
8	47690	28066.766511147845	1
8	47691	28068.209962210974	0
8	47715	28083.79453002366	1
8	47716	28084.45278444649	0
8	47849	28176.750898807409	1
8	47871	28185.915153733029	0
8	47950	28235.282860628564	1
8	47951	28235.519603652448	0
8	47955	28235.613883104894	1
8	47956	28237.149517645628	0
8	47990	28256.773699773198	1
8	47991	28257.355946943508	0
8	48025	28269.06245161485	1
8	48031	28271.485613324749	0
8	48040	28273.112403698864	1
8	48041	28274.364181211102	0
8	48155	28389.714772463143	1
8	48156	28390.175448417104	0
8	48170	28395.015339811814	1
8	48171	28395.233328745588	0
8	48175	28396.522869321771	1
8	48176	28396.827442541047	0
8	48190	28400.137040881944	1
8	48192	28400.988992428083	2
8	48193	28401.163105233833	1
8	48206	28405.657151330895	0
8	48225	28411.356258193403	1
8	48226	28411.464491750001	0
8	48305	28445.299524569116	1
8	48306	28446.266971196052	0
8	48335	28469.032011810611	1
8	48336	28470.06231798459	0
8	48355	28476.555168679069	1
8	48356	28476.702373164228	0
8	48375	28494.78076411192	1
8	48376	28495.372487129344	0
8	48390	28498.339594690499	1
8	48391	28499.45834809903	0
8	48455	28564.25649635069	1
8	48471	28569.145697600347	0
8	48490	28574.070239395075	1
8	48491	28575.375738307899	0
8	48500	28578.062923547842	1
8	48501	28578.706179259224	0
8	48637	28650.652500767828	1
8	48639	28651.085428661917	2
8	48658	28658.301716874871	1
8	48661	28660.292009560722	0
8	48670	28662.450997230932	1
8	48671	28663.494277424137	0
8	48692	28675.520281706209	1
8	48696	28677.629333380068	0
8	48745	28712.584699836503	1
8	48746	28713.554296331522	0
8	48794	28731.162247426011	1
8	48821	28740.010484857325	2
8	48833	28745.181615375639	1
8	48836	28747.161803067946	0
8	48840	28747.669230042864	1
8	48846	28750.540460425713	0
8	48859	28753.146756287719	1
8	48866	28756.571716934354	0
8	48870	28757.696145529349	1
8	48876	28759.509976277412	0
8	48880	28759.586321648976	1
8	48886	28762.896563841873	0
8	48900	28769.680149311987	1
8	48901	28770.147671299321	0
8	48910	28771.993054584676	1
8	48911	28773.601367107486	0
8	48965	28840.81432122771	1
8	48966	28841.482964770753	0
8	48977	28845.432053273054	1
8	49026	28862.540047881107	0
8	49139	28939.410924457771	1
8	49186	28957.770302712776	0
8	49197	28961.709968012811	1
8	49201	28963.247892536337	0
8	49210	28967.301439955229	1
8	49216	28969.566200917062	0
8	49225	28972.113452510866	1
8	49227	28972.764041656101	2
8	49228	28972.810447033343	1
8	49236	28975.89139295913	0
8	49285	29022.546392224718	1
8	49286	29022.675856367835	0
8	49292	29023.947536264625	1
8	49297	29024.988124929934	2
8	49298	29025.558630351872	1
8	49301	29026.81048328817	0
8	49340	29045.394937942283	1
8	49342	29045.738665491676	2
8	49343	29045.950569534491	1
8	49346	29047.76500547808	0
8	49360	29055.458225148311	1
8	49361	29056.946341763861	0
8	49380	29064.413515737212	1
8	49386	29067.10432720054	0
8	49550	29204.135288221675	1
8	49551	29205.55432147683	0
8	49605	29250.772700836412	1
8	49606	29251.94486148667	0
8	49615	29253.788279558453	1
8	49616	29255.51145153914	0
8	49625	29257.245181379091	1
8	49626	29258.64975695454	0
8	49710	29388.267055726891	1
8	49711	29389.383049785404	0
8	49794	29426.869934038831	1
8	49821	29436.950754806176	0
8	49830	29439.355686256459	1
8	49846	29444.461495951154	0
8	49850	29445.554538754199	1
8	49862	29448.571347306787	2
8	49863	29449.317034219914	1
8	49866	29450.833413252198	0
8	49920	29493.239613272266	1
8	49921	29494.574252528416	0
8	49980	29547.240467109073	1
8	49981	29547.302859640191	0
8	50020	29600.922185286542	1
8	50021	29602.441265474953	0
8	50080	29645.251658846912	1
8	50081	29646.015246610913	0
8	50237	29733.777661326159	1
8	50247	29736.055568709701	2
8	50248	29736.906780185484	1
8	50296	29752.08814690218	0
8	50315	29758.753130268021	1
8	50321	29761.560973005156	0
8	50345	29777.177521355189	1
8	50346	29777.418828843338	0
8	50355	29780.258341397572	1
8	50356	29780.844690926519	0
8	50362	29781.895865591199	1
8	50366	29783.888741934073	0
8	50370	29783.975577977677	1
8	50371	29785.343936269131	0
8	50380	29787.593316616738	1
8	50381	29788.654101790634	0
8	50390	29801.432409526453	1
8	50391	29802.049430328159	0
8	50530	29911.826213192794	1
8	50537	29913.338271394509	2
8	50538	29913.809156201219	1
8	50547	29916.285834478962	2
8	50548	29916.710529772004	1
8	50551	29918.374203563293	0
8	50565	29921.836643832945	1
8	50566	29923.210752950793	0
8	50570	29924.24631398081	1
8	50571	29924.548331802523	0
8	50575	29925.366103356292	1
8	50576	29926.358323708175	0
8	50592	29933.415970137915	1
8	50596	29935.582650936165	0
8	50617	29942.264319234054	1
8	50626	29945.573072003425	0
8	50650	29955.46882545045	1
8	50666	29962.230368815784	0
8	50695	29976.386921493914	1
8	50696	29977.652405005761	0
9	18324	10516.917488450057	1
9	18326	10518.020185913339	0
9	20006	11474.925120033789	1
9	20009	11476.248227184172	2
9	20012	11477.598230601381	3
9	20015	11479.14052621806	4
9	20016	11479.688994294231	3
9	20020	11481.251141979558	4
9	20021	11483.519372559862	3
9	20024	11484.068692737291	2
9	20028	11484.685024049111	1
9	20030	11484.98561947812	0
9	20415	11660.331524111935	1
9	20416	11662.828469305994	0
9	20505	11698.051562191205	1
9	20506	11698.202983196348	0
9	22870	13100.966346634808	1
9	22871	13104.593876368484	0
9	23355	13449.248128695644	1
9	23369	13452.41961739264	2
9	23371	13453.43468220867	1
9	23377	13455.305501428391	2
9	23380	13456.616938616852	3
9	23381	13461.661985177398	2
9	23385	13463.547711945549	3
9	23386	13463.738468619774	2
9	23389	13464.521246030702	1
9	23391	13464.745353293471	0
9	23399	13466.733438566107	1
9	23409	13470.049243889607	0
9	25165	14569.848749906618	1
9	25171	14572.700583045462	0
9	25177	14574.246377524452	1
9	25181	14576.482551926102	0
9	27002	15675.559444097483	1
9	27004	15676.959490091366	0
9	27009	15677.544088948199	1
9	27016	15680.045067520944	0
9	28930	16805.355691483945	1
9	28939	16808.684965216333	0
9	28950	16812.822889427509	1
9	28951	16813.126102426661	0
9	30737	17897.946861056307	1
9	30739	17898.723304416934	0
9	31745	18473.777859065537	1
9	31746	18473.843874379308	0
9	31795	18511.875206737264	1
9	31796	18515.595647895386	0
9	34019	19812.234071712216	1
9	34021	19812.439627717518	0
9	38437	22392.7022977984	1
9	38439	22393.443207441592	0
9	38442	22394.539018372861	1
9	38449	22397.100330619664	0
9	41605	24177.835976008202	1
9	41606	24183.254405813893	0
9	43319	25257.002900371864	1
9	43324	25259.619945475137	0
9	45735	26801.580535877071	1
9	45736	26801.984230819249	0
9	45790	26826.795905434236	1
9	45791	26831.05878334146	0
9	46867	27553.868393358268	1
9	46874	27555.590763754417	0
9	48162	28391.541621635108	1
9	48166	28393.931437003873	0
9	48182	28398.027507887482	1
9	48189	28400.137040881944	0
9	49222	28971.340127115545	1
9	49224	28972.113452510866	0
9	50525	29909.485682584389	1
9	50526	29911.044802375509	0

