version 2
run Third_exit_5-11-20191114-11:42:56-9019
attr configname Third_exit_5
attr datetime 20191114-11:42:56
attr experiment Third_exit_5
attr inifile omnetpp.ini
attr iterationvars ""
attr iterationvarsf ""
attr measurement ""
attr network ResponseTimeNetwork
attr processid 9019
attr repetition 11
attr replication #11
attr resultdir results
attr runnumber 11
attr seedset 11
param **.Source.interArrivalTime exponential(6s)
param **.jobPriority bernoulli(0.8)
param **.PS.serviceTimeU1 "uniform(1.2s, 2.0s)"
param **.PS.serviceTimeU2 "uniform(2.4s, 2.8s)"
param **.SS1.serviceTime exponential(1.4s)
param **.SS2.serviceTime exponential(2s)
param **.PS.exitProbability bernoulli(0.5)

vector 0 ResponseTimeNetwork.sink lifeTimeU1:vector ETV
attr interpolationmode none
attr title "lifetime of arrived jobs U1, vector"
attr unit s
vector 1 ResponseTimeNetwork.sink totalServiceTimeU1:vector ETV
attr interpolationmode none
attr title "the total time spent  by arrived jobs U1, vector"
attr unit s
vector 2 ResponseTimeNetwork.sink lifeTime:vector ETV
attr interpolationmode none
attr title "lifetime of arrived jobs, vector"
attr unit s
vector 3 ResponseTimeNetwork.sink totalServiceTime:vector ETV
attr interpolationmode none
attr title "the total time spent  by arrived jobs, vector"
attr unit s
vector 4 ResponseTimeNetwork.QueueU2 queueLength:vector ETV
attr interpolationmode sample-hold
attr title "queue length, vector"
vector 5 ResponseTimeNetwork.QueueU1 queueLength:vector ETV
attr interpolationmode sample-hold
attr title "queue length, vector"
vector 6 ResponseTimeNetwork.sink lifeTimeU2:vector ETV
attr interpolationmode none
attr title "lifetime of arrived jobs U2, vector"
attr unit s
vector 7 ResponseTimeNetwork.sink totalServiceTimeU2:vector ETV
attr interpolationmode none
attr title "the total time spent  by arrived jobs U2, vector"
attr unit s
vector 8 ResponseTimeNetwork.SS1 queueLength:vector ETV
attr interpolationmode sample-hold
attr title "queue length, vector"
vector 9 ResponseTimeNetwork.SS2 queueLength:vector ETV
attr interpolationmode sample-hold
attr title "queue length, vector"
0	16325	10007.587469825143	1.549599598162
0	16335	10011.814890617095	1.931897943094
0	16345	10017.831540156023	9.59589340296
0	16374	10027.224235074296	5.333995648822
0	16377	10028.719496858008	9.258112457582
0	16392	10051.87274983276	7.751071624551
0	16405	10059.779486463351	4.435973840258
0	16427	10078.41829493435	5.555019564991
0	16437	10082.023358188736	3.544887715608
0	16451	10085.003202537428	2.430499306234
0	16471	10091.615596482139	6.947450441757
0	16478	10093.329179836418	4.634075461375
0	16497	10101.555402561817	10.029996546578
0	16500	10102.971602343376	21.720603134361
0	16517	10110.651857134013	1.665242864378
0	16522	10112.607993676572	7.70885153204
0	16530	10116.868053891903	5.104672955319
0	16537	10125.189463330569	1.846323613077
0	16550	10131.123178906203	2.604472870326
0	16555	10132.71419227639	1.341300977021
0	16560	10136.51452914533	1.475367040001
0	16613	10157.471952842928	5.059212126423
0	16622	10158.936258021749	12.249062574702
0	16625	10160.181162832125	21.852034493446
0	16630	10161.94059644696	4.897696900648
0	16642	10165.280744960724	7.077952997547
0	16645	10166.67912643925	14.991375911141
0	16650	10168.176260752424	6.340835543371
0	16653	10170.05559604299	17.941096929922
0	16658	10171.632728389657	7.966933246244
0	16678	10177.644888677268	31.75758393947
0	16686	10181.43828969319	9.497093912047
0	16691	10182.781203067867	11.985868957147
0	16720	10196.63041642529	5.059430748777
0	16730	10200.834390765499	2.331463701729
0	16747	10206.779153960593	1.567337013595
0	16750	10208.508111932896	26.606547802958
0	16757	10211.863427346502	1.996973560192
0	16767	10214.934778852504	2.21295048632
0	16770	10216.194510189932	5.508427510959
0	16775	10232.754675286268	1.987836806476
0	16782	10237.843050003148	1.766929824837
0	16785	10239.188290197126	1.71482694288
0	16790	10242.898086057499	1.794978955574
0	16795	10245.694212039984	1.460947613418
0	16807	10256.668132825469	4.935075210526
0	16820	10261.556478747068	3.089711772072
0	16825	10265.663565454824	1.943876041658
0	16830	10283.5796084228	1.348831535876
0	16852	10293.484717805606	9.597047693596
0	16875	10307.003176987937	19.264973976946
0	16882	10311.990642630323	1.760255396552
0	16885	10313.851947658151	3.093081513625
0	16890	10325.987370784494	1.908038633689
0	16902	10335.809831241183	3.011624372656
0	16927	10348.451720985546	14.086730521341
0	16932	10349.915428389571	2.795802077208
0	16935	10351.277709857337	7.352099188042
0	16950	10359.759677436339	8.405648155589
0	16955	10370.443612203147	1.922964778543
0	16970	10380.255089560677	1.529402706213
0	16975	10382.401992787639	1.878791241534
0	16991	10387.999875360765	2.332159290193
0	16994	10389.659729302898	3.803267954543
0	16997	10391.260066943653	4.322298283383
0	17000	10393.102552169785	8.263173038139
0	17005	10405.245921386524	1.456530510262
0	17017	10420.087654302092	2.493554839722
0	17025	10423.238461889522	2.361760088525
0	17061	10435.067923410448	1.811184315241
0	17064	10436.284654527182	19.625725771875
0	17067	10437.755286048377	8.882514213138
0	17079	10441.365564412276	2.345491256567
0	17097	10451.588318470743	2.15302168473
0	17100	10452.81485011882	3.913629788533
0	17110	10463.011757291289	1.510717533156
0	17120	10468.555743290464	11.882580154102
0	17132	10477.533752916415	4.64256172916
0	17147	10484.178926053529	7.345768630022
0	17150	10485.706494367195	2.515939314807
0	17157	10502.98469263724	1.407675723732
0	17180	10509.959338699458	3.326512499316
0	17200	10517.315876863116	14.948024345046
0	17205	10518.694474054745	12.597649007456
0	17234	10529.46353022779	3.530152106334
0	17239	10530.945730577099	7.414852127619
0	17242	10532.180423326666	6.582335354265
0	17250	10551.566245541823	1.997519738041
0	17272	10582.266461262161	7.326316192753
0	17280	10587.074215447058	9.271761677189
0	17290	10599.012887880772	6.201101031797
0	17295	10606.51587207307	1.653682019003
0	17304	10608.714094399279	1.922927412577
0	17307	10610.631003191127	2.807307458317
0	17315	10614.167890663237	1.208528107591
0	17342	10632.348654721217	2.053581661883
0	17345	10633.941215022379	3.282113569167
0	17385	10653.652203097598	12.236675099645
0	17395	10670.286202065701	4.135667931255
0	17405	10683.790204167396	13.199523744111
0	17417	10694.329036466096	1.951331823133
0	17420	10695.840930824045	6.751928928488
0	17425	10732.715727650127	1.299879323132
0	17430	10739.297973215029	1.370949300565
0	17466	10752.280573232635	3.106104098511
0	17474	10755.515657817735	13.330407135893
0	17479	10756.969107079482	3.938223119471
0	17504	10764.868382552981	18.46736760591
0	17513	10766.36567491085	4.931140441972
0	17516	10767.646265348203	1.905296784679
0	17521	10768.862113880522	2.935732696744
0	17524	10770.458103700883	2.262032728539
0	17532	10774.011686135053	2.570056829769
0	17555	10791.63773987407	5.816289947341
0	17569	10800.920528902803	2.363273436787
0	17584	10805.718328730743	1.565242353082
0	17587	10807.338893440533	8.082075662389
0	17590	10809.21209342217	10.978998009711
0	17595	10816.848585445781	1.899168927968
0	17600	10825.17258561887	1.908486190625
0	17607	10840.087622863359	1.664410888776
0	17615	10843.948509865351	4.917701809072
0	17625	10849.094782426518	1.791408469614
0	17630	10851.544966783454	1.721664422192
0	17642	10856.937835966687	1.832843962498
0	17649	10858.865101893883	3.598534143932
0	17657	10862.817326964516	4.087130188657
0	17680	10875.486119778212	1.79375391677
0	17694	10879.455075870038	22.4606945146
0	17714	10889.333980040017	10.623559222522
0	17717	10890.974923457343	2.191511656174
0	17749	10901.919832806919	4.802182804903
0	17752	10903.49810411695	14.221566259136
0	17760	10907.565613900456	13.569581444371
0	17782	10928.17738121418	10.458521644087
0	17785	10929.919626568683	4.83355106078
0	17795	10937.149231269238	5.017072003164
0	17814	10949.338741615923	2.865449880695
0	17824	10952.425234865905	2.629406523787
0	17827	10954.381109215827	7.284056567029
0	17846	10965.126806710591	2.530536786474
0	17849	10967.097894187016	4.446898165348
0	17852	10968.940715440107	7.458330941573
0	17867	10975.415049941131	1.614425024576
0	17870	10977.150722587519	12.607729691612
0	17875	10983.330259662217	1.772553562745
0	17887	10992.320421061734	2.986836805336
0	17905	11000.009073517883	2.331768836853
0	17914	11003.981038544551	14.799371093481
0	17917	11005.390095379428	2.253865923111
0	17932	11014.186015877518	18.024282535509
0	17945	11018.865579675714	2.931603155229
0	17957	11027.867233722523	2.271147483984
0	17962	11029.650974464096	3.455578679754
0	17979	11034.262970352039	3.518918992257
0	17985	11037.469460560992	3.58305112987
0	17999	11042.429228583321	11.944295430632
0	18004	11043.704958835214	1.542166423062
0	18007	11045.381896943941	2.423241450369
0	18020	11053.843141736103	3.236685140374
0	18025	11070.902760269972	1.879159910046
0	18030	11075.11576329284	1.571556470357
0	18073	11105.027056112008	8.487810007341
0	18091	11111.931652524935	5.466749770645
0	18119	11118.250272990817	5.776574053858
0	18124	11119.950920019166	16.189455831482
0	18139	11124.773429817946	7.642982478109
0	18147	11128.197979116494	9.404267859006
0	18159	11131.054815661775	16.26102168626
0	18162	11132.256724193001	7.553896776759
0	18180	11139.229635971279	8.792296424363
0	18185	11140.965390398407	7.791985049975
0	18196	11142.722908701988	34.523588343428
0	18209	11147.936167074608	55.525362977232
0	18216	11149.273404762576	6.641593617979
0	18224	11152.389313084128	14.481500486995
0	18227	11153.985165028887	50.873869029125
0	18245	11160.03743233444	16.302614586186
0	18248	11161.517734356651	12.691149189391
0	18258	11164.521143697257	2.950644192608
0	18289	11175.289724515805	2.354403095263
0	18300	11179.354539899396	2.425406851894
0	18327	11192.081694931542	5.299303840446
0	18330	11193.307191575324	2.71669132026
0	18347	11209.509278990118	2.122020221142
0	18352	11210.858985327533	5.072084041498
0	18355	11212.637276315665	3.121520162442
0	18379	11225.69071378929	3.806072056614
0	18394	11231.414826822629	3.573468086403
0	18399	11233.293755489936	15.661704563537
0	18417	11239.519511196901	6.357332234428
0	18420	11241.499628601176	25.469166175134
0	18425	11252.306881869206	1.700744063407
0	18432	11256.540782363927	1.811976699717
0	18440	11260.462503732185	4.378269298982
0	18447	11275.385327720135	1.532115696557
0	18450	11277.094985815003	1.803371643514
0	18455	11279.489963752286	1.532273145951
0	18477	11294.010415017138	8.171079726475
0	18482	11295.497375460806	2.834593741759
0	18505	11309.439015259339	6.295583470721
0	18514	11319.928591787403	1.781016518734
0	18522	11322.941184150016	3.475804434317
0	18532	11326.699891297636	7.253909323614
0	18535	11328.31660430443	1.935742069712
0	18550	11339.473890048876	1.790050569549
0	18557	11342.114740897513	1.872080762498
0	18567	11345.451836050472	3.044418825166
0	18575	11350.179236069137	1.953426222689
0	18591	11356.071539866823	3.873483628726
0	18599	11359.521014665339	2.539195360293
0	18618	11364.606012596648	10.440868444181
0	18621	11365.918641603265	4.231434293045
0	18624	11367.288727991741	3.831061984867
0	18635	11373.3425476106	13.716249947224
0	18662	11388.772349931526	1.644304183125
0	18670	11393.008096148244	7.969531158463
0	18680	11401.477206705383	2.114605242338
0	18717	11424.391525940498	1.257908788137
0	18725	11429.492335359393	12.229737169591
0	18751	11440.583787566751	4.862387241023
0	18756	11442.022230780825	3.764439835245
0	18759	11443.473557496957	4.764059112384
0	18769	11446.596882329277	4.669433354254
0	18785	11453.051174381702	12.491203415439
0	18795	11460.406112342618	15.435065381777
0	18802	11469.965723928507	1.438192613237
0	18827	11485.55966363676	1.306774938293
0	18874	11502.408747262571	12.03091480776
0	18898	11509.173451652255	3.781479818919
0	18906	11512.147621999931	11.062323132861
0	18939	11520.640407585416	26.945421863232
0	18942	11522.56028493854	6.709886022545
0	18955	11526.959268694434	8.708371679161
0	18976	11532.015789277914	23.37054628175
0	18984	11534.715895716536	4.502382142889
0	18991	11536.689404900807	21.435842934969
0	18999	11540.219378236557	8.526309550657
0	19002	11541.92701656806	25.732856618098
0	19007	11543.382004504154	14.175750287317
0	19012	11545.180976267966	10.143335835341
0	19017	11546.746486794452	3.742918900474
0	19020	11548.085680864814	3.344673275782
0	19041	11555.838529588904	25.258150124587
0	19044	11557.138552671175	2.978749199936
0	19079	11570.968453751217	3.51911494389
0	19106	11578.674282081696	2.301316906687
0	19111	11580.17829734915	2.012072671083
0	19116	11581.782331477749	2.100608769373
0	19141	11591.649805747148	26.06430854974
0	19144	11593.409110259813	3.367028829677
0	19160	11604.450323888408	3.902656503718
0	19165	11606.665988385516	1.326939043775
0	19170	11616.337606056579	1.925206904858
0	19207	11638.144514289437	9.834998450924
0	19210	11639.800672152018	11.179253446368
0	19215	11654.209604899469	1.516640963033
0	19225	11661.840591693065	5.121870083919
0	19270	11674.402193356276	8.86633620233
0	19290	11681.192153476335	17.037715407659
0	19293	11682.84909653195	16.414713195003
0	19308	11687.465620188944	14.672797659954
0	19311	11688.719348284945	2.874995618426
0	19316	11690.208851212606	11.298204375181
0	19321	11691.533268372312	4.12574256763
0	19324	11693.094575704604	26.362645442541
0	19327	11694.534203083969	3.370185143678
0	19340	11700.423669001476	2.155362144731
0	19379	11716.552719244809	4.266864366861
0	19384	11718.059247149603	10.719900323133
0	19389	11720.005250575469	4.082216568435
0	19392	11721.276446087361	13.243975929774
0	19415	11732.940330431226	1.909800105323
0	19442	11745.065859914762	2.788434764227
0	19450	11748.446876514137	8.012061449043
0	19464	11752.445091223293	8.456434696729
0	19469	11753.930983029627	4.632176115363
0	19492	11761.691401612148	8.962346510193
0	19516	11768.186065936163	3.337349343455
0	19538	11774.489406881742	3.943840601735
0	19552	11780.56571444597	22.998427101091
0	19584	11790.196484950749	6.929894596991
0	19604	11796.039682716509	11.000041065824
0	19617	11800.731556237681	1.579083800618
0	19644	11810.617065066394	7.551147197258
0	19647	11812.075133969743	5.820275405033
0	19665	11819.17832480677	1.684116717987
0	19675	11837.925971990516	3.118953674011
0	19695	11858.070627728786	6.276851318256
0	19707	11875.48275884407	1.339310950972
0	19710	11876.687019647457	1.852790544774
0	19737	11888.53152816094	8.569027911127
0	19742	11889.842076216857	1.991216647967
0	19760	11899.030990161467	17.534689543202
0	19767	11905.890958938762	1.404054958746
0	19784	11910.436367278933	3.402005138417
0	19793	11911.788697602242	4.280895771681
0	19796	11913.431721700929	8.541721459154
0	19809	11918.22759349776	11.983652941765
0	19822	11922.977740928918	2.348294702515
0	19832	11926.137663757629	2.13726216612
0	19837	11927.86762787608	16.300995884372
0	19845	11931.768673498688	12.488947990726
0	19850	11933.64086796944	1.757809133269
0	19878	11960.037155041332	4.816907444783
0	19883	11961.96830579252	3.924029980875
0	19888	11963.645895043807	5.369941257938
0	19903	11969.012314202311	6.245736369666
0	19913	11972.050716959732	10.697936414822
0	19918	11973.763084687153	5.621522133616
0	19926	11976.768081958638	5.617263059852
0	19941	11981.262216843524	10.12510738423
0	19944	11982.710221094311	2.712400942926
0	19954	11985.932970916525	13.089223397406
0	19969	11990.283087609568	34.17896594967
0	19974	11992.208064276212	2.58136390926
0	20042	12028.561977398661	15.626388954623
0	20045	12029.853511434686	2.223925782401
0	20062	12036.549009560106	1.597105783355
0	20065	12037.792010872868	6.45970019839
0	20090	12050.514474020032	9.47258041173
0	20127	12074.217310255381	5.957216977535
0	20135	12077.701334510661	8.00101180264
0	20147	12083.512367151404	4.853194415206
0	20160	12090.639259437203	7.176501386323
0	20167	12093.172574531207	1.790927643143
0	20170	12095.033527777078	1.916103166122
0	20175	12096.819574464658	1.455897456594
0	20180	12104.142424785596	1.768695741519
0	20197	12112.569455790463	7.692432335866
0	20209	12115.953761186574	1.993374673463
0	20232	12126.673026355397	11.514508612498
0	20235	12128.439148326073	17.474346049623
0	20245	12137.668079563471	4.148509825719
0	20252	12141.987072932017	1.411879342608
0	20260	12145.708347985936	3.139958305432
0	20272	12150.006452837152	8.802294302141
0	20275	12151.818162624476	2.230414463204
0	20280	12164.374697047907	1.87691344209
0	20314	12178.28245815995	12.326335709946
0	20327	12183.323107769218	10.70364832562
0	20332	12184.850775403035	6.791531397754
0	20367	12201.670165747287	6.065710246003
0	20392	12209.681238860894	4.663215063349
0	20402	12213.265298549541	10.207265265596
0	20405	12214.892363643543	2.274558164724
0	20420	12232.36318914972	5.436655844336
0	20425	12237.021241719747	1.603956271522
0	20435	12250.765951001314	3.360972331651
0	20470	12275.343267410235	10.329781964421
0	20482	12281.591049658337	3.368062530946
0	20485	12282.842003070207	2.239281450158
0	20500	12299.421639854878	1.318627564423
0	20515	12310.263086252227	1.381035314873
0	20525	12321.573166567665	5.453264542713
0	20540	12328.878905601606	4.304438145334
0	20577	12343.592712002206	7.726916016237
0	20586	12345.477639613445	15.433597260281
0	20591	12347.003117275941	2.855531543192
0	20602	12351.451899523432	6.289255338585
0	20637	12361.85590372973	1.908358472411
0	20657	12370.668304300613	16.339981159008
0	20672	12375.835223948269	37.09775467567
0	20675	12377.158965667582	4.502518937923
0	20687	12382.389111735377	3.92505860931
0	20705	12397.205701771995	12.577089785846
0	20710	12404.292980043886	1.364897359535
0	20715	12408.764491438552	1.922810624167
0	20727	12412.482447274572	2.239389901948
0	20744	12416.797476595251	2.401029780854
0	20747	12418.324477774819	3.142694581953
0	20809	12442.11477238618	6.320057979273
0	20812	12443.871802702063	19.327354263936
0	20854	12458.652701771145	12.39894181621
0	20859	12460.30149522729	4.739716805146
0	20867	12463.730771981625	2.619503224333
0	20880	12469.88360129388	10.615562668661
0	20887	12482.050113090962	1.418390554748
0	20927	12499.75064012328	1.239423732087
0	20930	12501.051866734157	19.96771679152
0	20942	12504.765919498415	12.977579317772
0	20954	12509.376917233956	1.952515273541
0	20967	12514.521374999253	13.333036424239
0	20977	12517.543127077898	2.492005893907
0	20995	12525.310136490273	7.601939455489
0	21014	12536.139054922171	2.097964778558
0	21021	12537.895178239204	3.331517689906
0	21024	12539.464895375043	7.843811070993
0	21027	12540.982600536167	4.004880678153
0	21032	12542.77385561221	5.45171837401
0	21035	12544.648917844675	2.970849202527
0	21069	12567.999872974532	2.832654568387
0	21072	12569.961614724474	4.249474260553
0	21084	12573.790734810515	18.53099844975
0	21087	12575.766192247665	2.808196371712
0	21100	12583.211671155038	9.923133563816
0	21117	12600.434540566306	8.462878927643
0	21122	12601.636575975891	4.921955685877
0	21141	12606.60498795121	1.853426266915
0	21149	12609.389317241525	8.570846834404
0	21169	12615.998753936244	5.395257745181
0	21174	12617.20281635358	11.573995824589
0	21195	12629.884505411711	13.144861177273
0	21200	12636.883570750235	1.650750676356
0	21205	12638.539954627742	1.542665240169
0	21217	12654.310316247427	3.768876636136
0	21237	12662.266306564819	2.806339518115
0	21247	12665.879667950576	12.786403188587
0	21257	12671.344930117762	1.719066867605
0	21280	12681.357650260593	8.07590252376
0	21285	12684.12338509286	11.646922413729
0	21294	12688.657644416201	1.335628786124
0	21304	12691.490450852174	3.358607870169
0	21314	12694.388826343972	6.871129677542
0	21358	12707.561925048749	5.362291763263
0	21361	12709.310688166688	9.432199696869
0	21370	12714.276495095337	24.183432391905
0	21377	12716.004852469337	22.941893995075
0	21385	12720.7906614309	15.493536347282
0	21402	12746.294790466785	4.672778180612
0	21427	12758.148876332551	15.160618858374
0	21432	12759.692626784429	10.387864109421
0	21437	12761.138600382827	8.088215404586
0	21445	12766.148698522248	5.564620931642
0	21450	12770.978924366708	1.485777568631
0	21481	12794.902156792496	3.493678650018
0	21484	12796.559232376058	14.382554498723
0	21494	12800.027615793896	5.713875159339
0	21542	12820.286541840493	29.294645966175
0	21545	12822.098070992775	3.613319978046
0	21603	12839.236348140409	15.746944364259
0	21618	12843.159165155685	4.532433019557
0	21621	12844.842903802341	16.519033133701
0	21628	12846.715487999639	20.085654885509
0	21646	12853.636141748895	38.040234727783
0	21658	12857.018030787055	3.458770246869
0	21661	12858.236451719869	11.844124350717
0	21664	12859.781495225038	14.745131469186
0	21675	12864.275777057884	7.796048267132
0	21690	12869.915641184517	2.715546279947
0	21700	12874.020035466866	9.109424867585
0	21710	12905.446907958953	1.782383889891
0	21717	12908.65821692452	1.49354568366
0	21763	12931.126108975598	10.239713289556
0	21768	12933.061978557223	6.687739955465
0	21773	12934.749852714391	1.895990042916
0	21780	12936.528789894545	2.25498729306
0	21804	12943.05933649622	8.304197424376
0	21810	12946.395656785444	7.555629264352
0	21820	12949.6236877824	14.81924521396
0	21855	12961.129918978065	7.435642975517
0	21858	12962.413228182383	19.91092373072
0	21868	12965.121656281948	2.41484335113
0	21931	12982.726167524866	3.477700771552
0	21938	12984.156770410276	9.308312954212
0	21941	12986.121379718817	4.639250678186
0	21958	12990.905820569097	8.813672904882
0	21968	12994.488086289986	15.384152452393
0	21971	12996.320927443615	7.478716421421
0	21994	13003.225304245091	12.443973967309
0	22017	13011.003014887756	27.599916375778
0	22022	13012.208317801429	3.758703018578
0	22034	13014.870186058877	2.674504927707
0	22049	13019.285699997728	37.418627726592
0	22059	13022.666437129004	4.868951958217
0	22088	13030.596071051321	17.472754544575
0	22103	13035.534622691832	11.646695784373
0	22114	13040.422085026539	26.782643764908
0	22140	13049.153099208026	18.455321114919
0	22177	13059.664861096328	10.930002658694
0	22182	13061.021665923742	43.92284877932
0	22185	13062.749692476985	23.724128516053
0	22188	13064.046880805005	34.295734666554
0	22211	13071.198331862387	2.664908873033
0	22229	13077.088640117531	3.29696740458
0	22239	13080.766205399556	3.079914947055
0	22259	13087.261414001583	3.836566903594
0	22271	13090.723697298652	19.655112839312
0	22274	13091.94323328629	1.644003592254
0	22282	13095.39619468104	10.193329951306
0	22290	13098.339962983205	2.153507359463
0	22295	13100.77525132132	1.470971319079
0	22305	13109.542228282222	4.444548043983
0	22320	13119.328957007737	5.849018382246
0	22341	13132.41718097942	2.124307184694
0	22344	13133.905283557233	5.049977171793
0	22357	13138.834951533917	6.709429799394
0	22375	13167.440826968976	1.377472985536
0	22385	13175.314583907077	1.260928892158
0	22407	13188.920028708094	2.091174140415
0	22410	13190.132430949957	2.410585692126
0	22420	13205.198095158805	1.943457505479
0	22427	13211.399432719417	1.462164477259
0	22462	13224.293686041328	2.194248675464
0	22492	13234.267922522858	4.179840705917
0	22507	13244.367758334474	32.725549621892
0	22517	13248.829256370618	14.410385711433
0	22543	13256.337481278861	2.983870923015
0	22546	13257.87957021066	4.248469270529
0	22581	13268.788319051201	20.3467747149
0	22584	13270.455084831948	10.822934947965
0	22589	13272.055368475924	4.032786402138
0	22592	13273.72681935628	18.667662108044
0	22604	13276.586495795595	1.885602286708
0	22607	13277.977922054315	6.613715396428
0	22619	13281.602706857389	1.217106015421
0	22624	13282.85142322219	6.534326496454
0	22627	13284.458268067418	2.893251333112
0	22637	13287.933987204535	3.388676915212
0	22640	13289.643650786383	7.939739735037
0	22645	13301.664654522105	1.295066987164
0	22650	13303.73900810064	1.416817747243
0	22657	13310.303946164277	1.564584375173
0	22672	13315.739351179477	6.593253852463
0	22697	13324.18204260472	13.43922346031
0	22700	13326.013731478004	5.028114643231
0	22725	13352.729047596994	5.204358148011
0	22744	13361.784450379137	15.125496459894
0	22755	13367.211251211301	6.094691188161
0	22767	13370.346840492527	1.732556979412
0	22772	13372.104104974012	10.632736816298
0	22785	13382.330689533924	10.229702222972
0	22795	13386.673982829041	2.057055166837
0	22800	13388.643831559193	10.742770460555
0	22817	13397.301356826734	4.602814196795
0	22820	13398.942832854588	2.917966689482
0	22840	13408.491348542775	2.53377891451
0	22845	13411.886715208832	1.622404745594
0	22870	13435.290559158901	1.277306602523
0	22884	13440.244402060001	1.739423614182
0	22887	13441.819643196179	2.957040443091
0	22902	13447.461124830668	11.312875450205
0	22905	13448.819577076634	2.104383240303
0	22910	13453.069515014865	1.242572472431
0	22915	13459.057099549034	1.23404179588
0	22932	13472.368058810287	5.886962097382
0	22964	13481.780112535841	9.85706673652
0	22977	13486.839868662468	14.007623357391
0	22980	13488.133333457223	9.68180658333
0	22990	13504.291402135204	3.510473591109
0	23000	13510.742861209969	3.709227867691
0	23005	13512.768535821124	1.47354846932
0	23020	13531.136177961629	5.225250649683
0	23025	13533.182908461434	1.266422777809
0	23030	13544.706697546766	1.881643735431
0	23037	13549.131254308105	1.807920150459
0	23057	13569.882633967857	7.52267961119
0	23060	13571.866097169715	3.493944183832
0	23080	13590.234012146737	8.389241691504
0	23100	13604.766594048909	7.405448794463
0	23119	13610.080011861553	4.614020655304
0	23124	13611.535547387382	5.341166311749
0	23137	13616.179548450528	5.020307128322
0	23154	13625.425109588365	4.593338781483
0	23172	13633.338647358191	9.088193935967
0	23175	13634.703943738599	2.053785268836
0	23190	13641.427082851506	5.499827736653
0	23205	13652.5340922668	5.119167954165
0	23237	13674.432892788091	4.932138581771
0	23247	13677.745085788384	19.964049824828
0	23250	13679.55799132777	2.711487035577
0	23267	13693.411923125259	9.327209770052
0	23270	13695.124438279181	3.452573571368
0	23277	13713.871967283729	1.654783716239
0	23280	13715.164916827622	2.798942303247
0	23287	13720.920452263502	1.80364238061
0	23297	13724.498804481175	1.83561387863
0	23314	13730.303344609921	1.416945656948
0	23317	13731.932032313717	2.617580074315
0	23327	13735.056002816332	2.358336337954
0	23337	13738.399024884736	3.328109611126
0	23340	13739.659117732158	20.18897956351
0	23345	13744.595654110498	1.22041835431
0	23350	13748.184332338473	1.540905807354
0	23360	13758.932336269353	3.519118854936
0	23370	13772.956706052342	1.454324590042
0	23375	13777.650256116042	1.855734457448
0	23380	13784.155533785134	1.839553278498
0	23390	13803.6401953275	1.685912998579
0	23395	13806.614240028788	1.642458016612
0	23402	13809.262040314825	8.745542516079
0	23405	13810.90069997851	3.326093227392
0	23417	13816.902201894382	3.489771430083
0	23435	13828.760153716195	3.402916829847
0	23442	13832.733290162707	1.320791038498
0	23459	13836.865609877208	5.318757022805
0	23464	13838.502559964942	5.549961304083
0	23467	13839.997372571031	2.710807958245
0	23497	13854.517735983402	8.665008892412
0	23500	13856.096688546211	5.457291058814
0	23507	13886.026506201021	1.450794990733
0	23510	13887.690576507181	2.280579604229
0	23534	13900.126331930468	5.373037205708
0	23585	13917.543809447395	24.084237407687
0	23590	13925.987328457618	1.262351834588
0	23595	13940.306083619276	1.689608734846
0	23612	13954.279650150638	6.535215292649
0	23632	13960.750002068876	9.994957875797
0	23654	13966.984464143253	4.648857543915
0	23676	13973.23729940731	13.015568922304
0	23710	13982.909922348	2.867463814114
0	23713	13984.67289789509	22.952910691739
0	23716	13986.257810317762	5.456912245873
0	23752	13998.96958520826	45.205629394008
0	23769	14006.393735918369	1.480935093947
0	23785	14042.840999074267	1.513169925287
0	23797	14045.901626638825	2.040365641321
0	23800	14047.210623583327	7.783615931293
0	23805	14053.979467439518	1.573441484198
0	23810	14076.533382455533	1.929489685036
0	23815	14085.816049272666	1.334997420199
0	23820	14089.850922003855	1.479959368147
0	23839	14108.782587519011	3.130017576349
0	23842	14110.602349044478	2.519335298619
0	23872	14123.438777187929	5.202004123944
0	23892	14141.796120051448	1.461127638631
0	23905	14150.466672096714	9.200860093658
0	23910	14166.843463925889	1.677078864165
0	23917	14170.585335458464	1.433361920528
0	23930	14177.989598664833	7.489160180402
0	23940	14185.81604694914	3.9521404056
0	23982	14206.889351792808	11.683034430631
0	23995	14213.242819945905	17.347311260893
0	24000	14222.549071698245	1.881257523037
0	24007	14227.895431937303	1.723199071176
0	24010	14229.1250524333	2.246265779721
0	24027	14241.529420350355	4.692087186456
0	24057	14255.496925639817	15.041968609759
0	24087	14275.198596505125	1.977967725135
0	24090	14276.847007997011	9.061750045787
0	24109	14296.608619545934	1.233854830638
0	24112	14298.094780446005	2.415932049232
0	24125	14303.404744470637	7.290286667506
0	24132	14317.967797940957	1.589520520903
0	24171	14360.323647929394	7.054750129364
0	24174	14361.858578349502	7.372216932721
0	24177	14363.637861190402	14.171453384807
0	24189	14367.918319259891	1.348670355976
0	24195	14370.457089626165	2.546305048464
0	24215	14378.86857370772	6.039492102147
0	24222	14382.114260657025	1.659182270803
0	24232	14385.215208571112	2.333396699242
0	24259	14393.520177679775	33.460657186939
0	24307	14409.714952510862	9.411954181268
0	24322	14415.158971508738	13.576773958925
0	24329	14417.095441598963	5.088790821284
0	24351	14423.408817302953	2.645840840132
0	24356	14424.838616768043	8.121929720669
0	24361	14426.506352156173	4.727553671014
0	24372	14431.551167661283	6.05916919467
0	24386	14434.686619262729	10.966093228353
0	24397	14439.16966200858	6.700784361359
0	24411	14442.813399501849	3.348146300904
0	24414	14444.349568447989	27.942906457101
0	24429	14448.881416877132	2.019917375015
0	24464	14459.868632053357	8.535542993069
0	24481	14463.913637419563	23.380237904807
0	24486	14465.853806947503	4.42016260377
0	24489	14467.370455775182	13.710177632108
0	24515	14477.028495880905	5.090479927854
0	24525	14481.049495064321	2.403016528735
0	24540	14492.853190826689	10.25317291357
0	24555	14504.646138812778	8.98438165586
0	24562	14513.591071243434	1.826039288379
0	24570	14517.570313008391	4.369023191836
0	24592	14535.432629595629	5.985584055074
0	24604	14539.321785794504	8.588077634388
0	24607	14540.713243978031	11.248152443317
0	24617	14544.158421643261	1.749979571626
0	24644	14551.813636073093	12.808999390409
0	24649	14553.662572554308	8.658521465219
0	24654	14555.011398469838	3.309861598469
0	24665	14559.481792281563	6.501046758535
0	24700	14592.266277975903	1.469195003435
0	24711	14594.980465740991	1.285666766018
0	24714	14596.959000781459	31.002097884263
0	24753	14609.810255340903	3.766815199009
0	24768	14613.94400680144	6.223833823961
0	24780	14616.666462886005	10.422863901673
0	24805	14624.595598978965	27.272898443
0	24850	14639.29550515697	20.619881493525
0	24855	14640.706662938973	26.448589276147
0	24863	14643.996067809543	28.267936930266
0	24868	14645.972666040665	4.148164980793
0	24871	14647.575858411981	52.74472598775
0	24912	14662.086928143023	10.837627762265
0	24920	14665.467276702492	3.047672012371
0	24952	14690.436835043051	5.401642874839
0	24955	14692.141471546435	9.447838577709
0	24965	14698.866552576751	3.484319839622
0	24970	14708.318321226886	1.910501768254
0	24977	14716.56474462371	1.680500537716
0	24982	14718.39885133594	2.967717959127
0	24985	14719.735899626051	1.656160467474
0	24990	14735.085666155033	1.304666537605
0	25005	14747.917918693352	6.916172714708
0	25010	14761.464675295814	1.239837080054
0	25030	14774.433910743816	1.45533641167
0	25035	14778.239777498031	8.811822313496
0	25055	14794.922623948677	4.671169456653
0	25065	14823.351778082412	1.286844561808
0	25081	14839.205173527115	3.279173715082
0	25089	14842.66211810004	7.255908114835
0	25092	14843.981359793656	4.999167146546
0	25122	14856.057533792181	11.937906835021
0	25139	14861.445312953329	25.295367029563
0	25162	14870.933652901622	14.08422788237
0	25188	14876.436629624637	3.014064152734
0	25193	14877.938931326727	3.348524069989
0	25198	14879.485075606006	8.008581437804
0	25203	14881.40948154402	21.012109696943
0	25206	14882.688279420296	6.552211342749
0	25209	14883.894375625225	7.393937538301
0	25215	14886.633041010956	6.872997594107
0	25220	14888.285856634588	9.561695941225
0	25256	14912.002942416535	4.134208878829
0	25259	14913.262511538246	13.969414938262
0	25277	14919.934386130699	16.593081769603
0	25297	14926.135781999582	3.040689347688
0	25310	14933.949423327869	1.389353906736
0	25315	14938.509005458983	1.692500427365
0	25322	14943.139269963496	1.901553780399
0	25344	14951.927993126614	8.990195038845
0	25347	14953.18422917149	1.983812692884
0	25364	14960.155509583146	3.749045073685
0	25367	14961.592356232234	2.744348916217
0	25390	14969.451974236273	7.190562728195
0	25395	14971.849202875902	7.388803562539
0	25400	14975.631692061867	1.575989361294
0	25405	14981.151655410102	1.433821398951
0	25424	14996.779881097618	2.400402300276
0	25434	15000.119621398542	2.660799652604
0	25446	15003.584221317862	1.911475637449
0	25449	15005.056268916336	10.425054600481
0	25480	15019.830163209787	2.22539470762
0	25495	15030.811564341571	1.56866905205
0	25500	15036.531877823978	1.77220712211
0	25505	15040.837696770042	1.594239843823
0	25515	15050.773704092527	1.921058577299
0	25520	15054.110600640684	1.905050461926
0	25535	15064.393796765509	4.695847283304
0	25540	15075.283348716468	1.262919449247
0	25547	15085.821129713814	1.946499043703
0	25567	15092.231555808197	3.364767958694
0	25575	15097.685626157589	13.654563223683
0	25590	15107.435209781806	4.802645642124
0	25602	15117.104178096943	1.921879729792
0	25610	15120.095438103048	5.826926021104
0	25629	15132.648696276925	1.903492292762
0	25634	15134.591046542122	3.460216436583
0	25652	15145.598419189833	1.378763378225
0	25672	15161.756408772059	3.104841543561
0	25675	15163.003834479116	4.815676793456
0	25707	15203.626946533304	5.111164468924
0	25735	15222.424393641899	1.276402743906
0	25762	15232.517362786782	1.842058338194
0	25765	15234.252365801436	7.905749457516
0	25779	15242.769926940721	1.865136524818
0	25797	15251.823464299325	11.66927386418
0	25824	15260.677134210823	3.038640502923
0	25867	15275.17511814739	1.33595971372
0	25874	15276.670639508771	25.545829640781
0	25877	15278.256786032202	2.62038322714
0	25880	15279.976890498394	13.229599706595
0	25900	15288.137891545098	7.168168745048
0	25905	15290.467703429617	1.832192440331
0	25915	15300.171222756251	1.397350867465
0	25952	15313.666948723973	11.957865991445
0	26014	15348.560076841099	16.786245632168
0	26029	15353.795907784944	4.532828226787
0	26037	15357.213020308634	11.938780893727
0	26040	15358.528847458904	12.126369424028
0	26075	15374.732774510024	9.388874659466
0	26090	15382.335017822174	7.23357699835
0	26097	15384.209257072589	1.515091962554
0	26104	15385.865802745341	2.2071616555
0	26132	15392.928395763046	3.549685464163
0	26145	15397.672347526258	6.289465692115
0	26154	15399.163521811744	14.140910784888
0	26160	15402.608969754358	13.130353518141
0	26163	15404.129156643343	17.589647224685
0	26168	15405.43709916715	7.02284893296
0	26178	15408.528032022905	15.553185496822
0	26189	15413.003297414449	8.337285183957
0	26200	15418.223077594677	1.511673506349
0	26227	15437.542913100947	4.660473237
0	26244	15443.287706075578	12.17692125796
0	26255	15448.224880670539	2.611423622778
0	26271	15451.816982060719	11.919623184841
0	26274	15453.39612993994	17.794924763809
0	26277	15454.797943094049	3.676485768779
0	26280	15456.211868205529	4.477323770932
0	26285	15464.817269706708	1.236920626275
0	26364	15527.285419733527	3.53161178962
0	26367	15528.985454501661	19.713907638744
0	26370	15530.735288109893	12.417721001705
0	26375	15534.91624797146	1.956916618906
0	26395	15548.325814915446	9.003814362028
0	26400	15562.180032005845	1.393368530832
0	26405	15565.039780669346	1.577805226296
0	26415	15576.785765051171	1.748186405562
0	26422	15585.015514793638	1.531816411577
0	26425	15586.290372471344	2.622940106614
0	26430	15604.9450444949	1.815319426358
0	26435	15609.486581152191	1.241920444369
0	26459	15620.739896943986	1.60681561809
0	26485	15635.476510301531	24.63673602701
0	26499	15639.232859958411	2.565778131873
0	26502	15640.662168264651	4.13932450302
0	26510	15643.879861155414	2.908370804214
0	26525	15650.8315693211	11.914875974158
0	26554	15661.264325241073	8.433009334515
0	26565	15665.797203961333	7.477542586124
0	26577	15672.192730324502	3.282767601647
0	26584	15673.984757960561	2.843983066868
0	26589	15675.930627923432	7.255188839883
0	26600	15684.033080136828	9.439883123034
0	26605	15690.044414552472	1.516483374313
0	26620	15702.436259455263	6.024702608194
0	26627	15709.132295225128	1.642914834432
0	26630	15710.658788142666	2.603357782283
0	26635	15713.333473439358	1.616285897978
0	26640	15726.477469810985	1.246832622401
0	26650	15730.820671347712	3.309601085597
0	26680	15746.261987879976	11.583101735841
0	26692	15762.623862643109	4.491423173973
0	26712	15768.710007140274	6.310851107395
0	26734	15774.356798451628	9.660784673204
0	26742	15777.385096809689	4.293493851479
0	26747	15778.977346445855	14.89690733459
0	26750	15780.555794710342	2.853328625724
0	26760	15814.364499334479	5.913008843064
0	26774	15822.931581258195	1.805251855217
0	26803	15833.044236080332	16.259725010586
0	26815	15836.617749785802	13.7753016773
0	26827	15839.666307713821	3.203842222092
0	26835	15843.079911785743	3.644382373425
0	26878	15854.182947443037	3.542976252324
0	26883	15855.759336770496	5.107762253835
0	26888	15857.555594208634	4.744226364405
0	26891	15859.206563214196	29.399734249538
0	26906	15863.666023795103	19.592934307425
0	26911	15865.376161125657	8.327182243971
0	26914	15867.206582696159	3.017964627797
0	26964	15883.337320449371	2.325946935551
0	26967	15884.572960110922	5.221889368892
0	26996	15895.565725438466	6.328507514299
0	27032	15911.52404496938	10.029627900501
0	27045	15916.105365873597	9.605221785439
0	27054	15921.948136853764	1.612631601654
0	27057	15923.440364538284	2.78846272682
0	27067	15926.982779887453	6.268623590864
0	27070	15928.344045449183	1.709098510976
0	27085	15937.558845193179	4.123905967093
0	27090	15944.049276747096	1.439037368819
0	27120	15985.465808541801	6.10248636391
0	27142	15992.282302215134	1.958347446445
0	27150	15998.131316088977	12.315676799756
0	27165	16008.430574805113	5.895831510714
0	27170	16010.901016402384	1.746453192085
0	27175	16013.268660029959	1.77176251635
0	27180	16021.3924963799	1.780750679784
0	27195	16039.749414501921	3.911642793623
0	27207	16047.046621866259	4.668346234097
0	27217	16051.450921267741	1.683209708706
0	27227	16054.789834904236	1.406861047074
0	27239	16057.604956176814	1.728809178283
0	27261	16063.648067306852	2.057302126345
0	27264	16065.407734227492	3.627868597758
0	27267	16067.203063534884	4.931991884133
0	27272	16068.99743438506	22.559137692694
0	27275	16070.74403937695	3.250943178956
0	27287	16075.70346723598	1.734045676701
0	27304	16080.324646340485	6.03596802141
0	27307	16082.067302599724	4.973249231329
0	27319	16088.33060729336	1.971450680494
0	27322	16090.181398370117	3.280923759248
0	27332	16093.557503522374	2.76557357951
0	27367	16105.81063664444	3.12420263472
0	27390	16114.070502972792	17.541628618214
0	27395	16128.522879124601	1.451601345465
0	27402	16133.862949810148	1.7247047171
0	27410	16138.739472218385	1.65900947284
0	27422	16142.276362467143	3.037011815582
0	27461	16178.035352593064	3.04971545787
0	27464	16179.72783258181	14.814562032654
0	27484	16186.600127948596	2.593859169484
0	27495	16191.233839513324	1.871821300357
0	27502	16193.750914045188	1.890683002025
0	27509	16195.242918479394	9.914068218741
0	27514	16196.977680009369	3.099759268292
0	27517	16198.945170322757	3.842118857264
0	27535	16205.879433087888	4.394182610974
0	27542	16213.822408490414	1.280400717258
0	27545	16215.029625869887	2.352027882782
0	27552	16218.354413755876	1.341589957476
0	27589	16230.177228898349	9.319390922474
0	27601	16233.452085066567	7.84697181494
0	27606	16235.328812125492	12.609152012676
0	27620	16242.165336956251	7.584851271459
0	27645	16259.779309746206	1.591806268506
0	27650	16261.393451720406	1.277554975264
0	27655	16262.754706811625	11.608207825923
0	27674	16273.032397811356	5.753671540879
0	27684	16276.817033796254	5.441723324869
0	27687	16278.072022017892	7.538615073346
0	27697	16283.443851829189	1.971997946687
0	27706	16285.424981048945	2.620438601558
0	27709	16287.084728044327	10.645330443874
0	27717	16290.351080070864	5.139110878165
0	27722	16292.020707440618	2.291860636896
0	27727	16293.31684973618	1.650056614478
0	27735	16297.164052905062	12.560619100735
0	27740	16304.809602497357	1.540275330842
0	27745	16308.743341855125	1.923586592637
0	27770	16318.608163585439	7.313436394206
0	27780	16337.136205564035	1.353585373051
0	27797	16341.917166376462	4.304296531342
0	27800	16343.152623525051	4.4296355153
0	27805	16345.936212580359	1.471501790173
0	27825	16355.863088474223	9.770580029565
0	27835	16359.970513779678	3.069531040465
0	27845	16363.747268252001	3.424205391854
0	27855	16381.234373762503	1.459946177527
0	27882	16396.225997440421	11.976374358082
0	27890	16401.450945146349	6.001770814818
0	27895	16405.350987209346	1.623228822462
0	27932	16438.552247630293	12.700531519906
0	27947	16445.14322095068	16.798196587645
0	27950	16447.142593257146	3.542192030116
0	27965	16463.394567780001	4.975457648993
0	27975	16473.080998115573	4.185526014005
0	27985	16477.330353877934	3.577853649956
0	27997	16481.43797430355	3.294042967815
0	28015	16488.52602137881	10.632970582682
0	28020	16497.886961964338	1.685155964084
0	28025	16506.17185951873	1.857050615363
0	28030	16508.864975072677	1.419961421192
0	28035	16527.365712557013	1.207859338634
0	28045	16538.158390343844	4.652816178352
0	28050	16544.049497363481	1.853004781343
0	28060	16553.429952071136	4.857400217657
0	28072	16557.332335630171	2.064066310954
0	28085	16568.871688500812	4.087233162074
0	28095	16585.876902142645	3.244202795993
0	28102	16589.318611070796	1.58810039293
0	28112	16593.296598686705	1.720888344571
0	28142	16614.925844180176	1.431852401234
0	28145	16616.505004512669	12.447710823948
0	28150	16627.186077872934	1.656706384942
0	28155	16631.136653705618	1.436855378747
0	28165	16658.427480187244	1.506959878281
0	28177	16662.893582675216	2.316457094414
0	28180	16664.160456947592	4.525493913888
0	28195	16689.828224362854	4.875065251999
0	28202	16694.67873038583	1.999117843807
0	28245	16713.38016176073	5.620362318525
0	28257	16722.1945904278	36.903637277913
0	28280	16734.796236379333	12.86709810765
0	28299	16744.620481865053	1.506257812865
0	28304	16746.416880182494	3.082063480167
0	28315	16755.450963776101	11.76348122846
0	28337	16762.609467466278	17.562818328853
0	28350	16771.318957643365	1.584795824811
0	28360	16775.926240575806	1.387937099673
0	28370	16781.23245638918	9.601490787121
0	28390	16790.565764447302	6.32373303115
0	28405	16799.600586472996	15.395352613353
0	28419	16806.404512546624	3.035718967923
0	28422	16807.755635592568	3.359685607277
0	28469	16825.385663663131	12.536432371969
0	28474	16827.005029167143	7.864590110257
0	28480	16830.706607928407	10.485450908571
0	28492	16835.709928736279	23.736843621312
0	28502	16843.282896809394	1.302846073173
0	28527	16852.424443168927	6.324527404228
0	28547	16858.776222734504	24.372632329783
0	28562	16864.432474366884	11.566813278968
0	28565	16865.708383113268	18.082610206404
0	28572	16868.652612306291	1.426463092119
0	28577	16870.320429330991	1.686168099962
0	28580	16872.183075413593	3.129188758772
0	28585	16891.410006800615	1.517069024406
0	28599	16897.125045497407	2.201870008552
0	28606	16898.716394338448	4.308241154812
0	28611	16900.062252189096	3.788328349223
0	28635	16910.689891747838	12.751949014054
0	28660	16949.747538742332	4.47075823622
0	28667	16953.336329678643	1.54097622931
0	28680	16960.943285464441	9.035441461851
0	28695	16976.85114326386	1.438747133687
0	28726	16988.257750600424	2.754467355859
0	28729	16990.166253261302	4.014714891157
0	28734	16992.041198572364	4.416888063067
0	28749	16996.772600250911	5.556077039014
0	28757	17000.101091347854	4.31022629926
0	28762	17002.030202023904	6.497495688003
0	28765	17003.866326920162	3.060664787451
0	28790	17025.365648305311	2.057948432708
0	28795	17027.052570438215	14.380879246512
0	28802	17029.482436033971	1.484105881117
0	28810	17033.153388558324	5.072995047109
0	28815	17042.835219960892	1.311037207581
0	28830	17061.021383370822	5.962351252671
0	28837	17065.091350236625	1.534251875803
0	28872	17078.211799996504	3.212468051776
0	28892	17085.205258561109	18.956768029522
0	28900	17088.1711156071	23.780127372128
0	28907	17094.563176932369	1.283694709837
0	28922	17104.483575420617	1.338167087547
0	28930	17107.390025425493	2.495398720294
0	28935	17109.12184797598	5.96478087786
0	28940	17112.875046342658	1.665681816451
0	28955	17123.956104925915	1.493888255022
0	28982	17134.382906324075	15.441825582436
0	28985	17136.344879077965	2.443912439002
0	28990	17138.393255902168	1.828902801126
0	28995	17150.307583262355	1.229655666463
0	29014	17171.005466972543	1.981235966082
0	29041	17179.213078974998	2.450660464782
0	29051	17182.420576879634	15.182549034805
0	29064	17187.487378552994	3.809338416186
0	29084	17193.302624355881	14.645637322282
0	29089	17195.022687773658	2.503738657653
0	29094	17196.821227193316	14.471693957001
0	29110	17203.770090099464	7.457189964456
0	29117	17214.375860378545	1.334497799352
0	29122	17215.952089990702	1.948050915531
0	29125	17217.628503626053	2.857816066524
0	29135	17225.901537599281	3.491310669306
0	29140	17243.196425546502	1.784016432054
0	29164	17253.713612860132	6.290802161995
0	29167	17255.402417557564	3.187592108728
0	29180	17260.967117941742	10.953455215172
0	29185	17276.848316349932	1.865361818299
0	29192	17279.940287442202	1.791878615506
0	29195	17281.394284663232	3.027378061217
0	29205	17292.321647059879	1.882527588494
0	29210	17301.896934468504	1.968466819264
0	29232	17314.507587494693	5.940500128451
0	29255	17332.405486929072	1.797994018905
0	29262	17336.267246194756	1.28092258554
0	29292	17348.015891414621	1.862394519337
0	29300	17352.92507119571	14.875300687935
0	29317	17371.782171995211	5.382821490257
0	29322	17373.76956491081	2.636215396939
0	29340	17386.692386812388	4.291889857319
0	29370	17411.209875617438	11.725224430791
0	29375	17414.03652627665	15.083703365978
0	29380	17416.218440289657	1.73604394272
0	29385	17421.796162647369	1.72163983956
0	29422	17477.761085863049	6.501303400432
0	29434	17481.198954159031	2.992007511735
0	29442	17484.385725232968	9.996149519271
0	29452	17487.592823169539	8.528980991508
0	29530	17508.969386875414	5.397481776665
0	29535	17510.500768437394	3.999197830716
0	29544	17511.966284253792	23.142017873116
0	29547	17513.238565254369	11.23286597314
0	29552	17514.559621110716	6.725161852698
0	29580	17524.979725725362	14.983215581196
0	29583	17526.852241425747	40.074576619052
0	29586	17528.225514351921	16.858143408233
0	29589	17529.810763296829	18.261054813297
0	29594	17531.16340722532	17.86102650792
0	29605	17536.123979711691	6.027124919085
0	29615	17539.996073724241	3.581889510158
0	29632	17548.14316038743	5.194730811201
0	29640	17551.970619547482	2.369018469556
0	29677	17575.173622140452	11.186320001464
0	29687	17578.206785608247	1.759914425616
0	29694	17579.952123529628	2.508032592316
0	29697	17581.427205357865	2.792954246907
0	29717	17597.604905608014	1.504844330437
0	29732	17604.274980423241	1.382019376382
0	29745	17609.984425126042	1.576224465109
0	29757	17623.172747420882	2.557623301382
0	29765	17626.213465668204	6.831066540582
0	29787	17637.908123490196	1.736828722991
0	29790	17639.263257666473	10.510739302306
0	29812	17646.07853445209	1.448149119876
0	29825	17658.198581023193	1.331119608507
0	29830	17660.369528437846	1.222629612125
0	29842	17674.115372749879	1.98725103084
0	29850	17677.594512584648	4.987904440333
0	29855	17680.552532607429	1.283480172977
0	29867	17686.115309795109	3.754058303216
0	29872	17688.096904371051	5.855511751957
0	29875	17689.937570132432	3.649302726642
0	29880	17704.579500881566	1.380564273149
0	29890	17714.392546556975	4.248837927854
0	29922	17737.892954430924	1.665098554141
0	29967	17768.568828517436	1.832220639288
0	29975	17771.114943328737	2.318746481988
0	29987	17775.891861970163	2.357113063046
0	30001	17779.100344793311	2.018849774331
0	30011	17781.943384707718	6.20290270227
0	30023	17785.064242708496	7.939666424205
0	30029	17787.910321103594	4.19820685562
0	30041	17790.82872142121	13.347928599432
0	30060	17795.433844922109	5.32373973435
0	30066	17799.102374801969	17.897670043432
0	30083	17804.365816555916	20.556500605124
0	30088	17805.851626773364	5.731300452507
0	30093	17807.40055493079	15.291472391568
0	30100	17808.859692942164	14.499268508952
0	30103	17810.802050014771	16.210438047445
0	30106	17812.483373657055	6.781104145056
0	30109	17814.384087788313	6.989104159389
0	30112	17815.804988143592	7.287470242441
0	30144	17826.468162777649	5.685519983137
0	30154	17830.040259769933	11.678900672347
0	30180	17864.09949870917	7.836144439973
0	30187	17867.013152677338	1.842430642061
0	30204	17872.357919940125	5.388881022869
0	30207	17873.931439463008	6.070633902781
0	30212	17875.503129177313	4.726502298338
0	30229	17880.749864163919	1.756272674934
0	30249	17887.14704834148	9.545529666802
0	30262	17892.53535360973	4.611240667383
0	30265	17893.852193235789	7.849003926192
0	30282	17901.170139923802	26.455065227604
0	30285	17902.986854309326	2.976102132099
0	30314	17926.880501037663	10.661562669177
0	30325	17930.953598709418	19.513603407159
0	30337	17950.445022792105	2.824797693913
0	30342	17951.993047650639	5.122761715948
0	30347	17953.209871087145	2.087351198506
0	30364	17960.334916429303	3.27758949001
0	30404	17977.390477581678	1.661830725266
0	30409	17978.643349519728	2.506355148034
0	30420	17984.384231177473	11.525416223923
0	30430	17988.534047259707	1.261445207521
0	30477	18022.433769216782	9.938838146909
0	30480	18023.721231183989	11.335043908523
0	30485	18028.86052277415	1.53109365385
0	30495	18044.48843266311	7.110136128172
0	30500	18051.110933859534	1.431348036416
0	30512	18074.919260262598	1.719148368575
0	30530	18089.46882675853	8.195785163203
0	30535	18092.810677437625	1.58053568583
0	30542	18096.322840940335	1.74129654821
0	30547	18098.138608540722	3.066233493687
0	30555	18102.940373223812	1.888239506073
0	30562	18106.778398444472	1.356226539053
0	30565	18108.523258178091	2.712418777663
0	30570	18111.17416453825	1.54766262956
0	30582	18119.856295203668	2.333251851533
0	30599	18124.834331428673	3.294296946776
0	30602	18126.248404855136	9.768284838065
0	30610	18134.811373411652	1.302798776329
0	30626	18140.565497252286	2.246939121481
0	30629	18141.882467449025	3.228120314999
0	30634	18143.82631967155	6.383717063443
0	30639	18145.570635918842	5.149426989565
0	30645	18148.04022382939	3.616529393185
0	30689	18161.856062064337	4.760440646258
0	30692	18163.688608734513	15.443720388235
0	30727	18175.297828460988	4.000569986208
0	30732	18176.862382671554	34.424549037233
0	30740	18181.721537750973	5.101027570718
0	30761	18203.288390662337	2.849326901325
0	30764	18205.076598581488	3.064959810708
0	30772	18207.875949254449	2.39358968876
0	30785	18214.252716560689	14.290399821895
0	30792	18218.639814596492	1.975282326527
0	30795	18220.151187406722	1.924095798394
0	30807	18243.670518047701	3.564689722033
0	30853	18257.750752561653	3.820118321494
0	30868	18262.835624174515	9.985703273983
0	30873	18264.367327086369	12.871412962862
0	30881	18267.659870821165	24.751612263046
0	30895	18275.27857842643	12.85812139432
0	30902	18285.390344706361	1.868693160638
0	30910	18289.32396190119	4.322952932218
0	30920	18295.10352402545	4.277536993147
0	30962	18320.026352070686	2.716519428083
0	30967	18321.944046881091	10.519667416671
0	30979	18324.599689514603	2.100972203112
0	30987	18327.97863973439	4.011134511933
0	30995	18334.187811961117	10.493065722651
0	31005	18338.311001626355	3.726890298355
0	31012	18348.468934250747	1.284118750319
0	31015	18349.812774507453	2.130680662868
0	31030	18363.053574380595	1.964552400075
0	31035	18366.83969570317	1.224325917475
0	31045	18375.727187183354	3.215702104689
0	31060	18385.837454896815	1.267682903446
0	31065	18388.381031903358	8.419891834665
0	31077	18398.580367284975	2.214714527729
0	31087	18403.762133690735	8.30309280461
0	31095	18415.032145419745	1.995569720492
0	31100	18434.159873818613	1.380631014146
0	31105	18437.384542040175	1.307460969687
0	31112	18447.968654233182	1.754945849814
0	31127	18453.584913475215	5.934235385692
0	31130	18455.12319041226	6.462787236741
0	31140	18483.776744261638	4.758438193907
0	31162	18491.988860603917	6.863602417306
0	31167	18493.691170130048	4.486154332976
0	31170	18495.418764196646	7.679311732446
0	31175	18505.049914488672	1.223698070832
0	31194	18530.65974215062	4.712723550204
0	31207	18535.018877346792	5.530504527905
0	31230	18545.717733196279	1.63892889861
0	31235	18549.194294220537	7.053645909699
0	31240	18563.549336050728	1.585323417559
0	31245	18577.654566487606	1.81026420705
0	31267	18592.604832642318	9.555952543503
0	31274	18594.578941252434	1.982488537357
0	31277	18596.401768887953	9.859314982679
0	31315	18609.062949297516	11.628506540201
0	31342	18635.809033544	5.976336634699
0	31350	18641.188156069325	13.490883262103
0	31377	18659.011340949305	6.211074842634
0	31419	18672.738495289155	14.376562588598
0	31439	18678.814712079794	5.836756888585
0	31442	18680.075764512078	20.923482111577
0	31460	18686.185187474927	18.736670261445
0	31465	18688.647883260792	23.146488263853
0	31472	18694.56941839955	1.812232093886
0	31475	18696.42296739924	2.412772932399
0	31504	18724.698546947275	1.811314404308
0	31507	18726.503535219577	2.90573556255
0	31510	18728.058229249638	3.709702730676
0	31515	18731.845640649655	1.297712834738
0	31520	18740.145710765942	1.641979755089
0	31540	18756.157812629664	5.907609543892
0	31552	18768.589307977269	1.983409580775
0	31570	18778.696272509355	2.960439611719
0	31575	18790.68843964682	1.319115672261
0	31580	18797.335616644841	1.979959650524
0	31602	18821.939979274164	6.068354709659
0	31610	18825.875935564394	18.019972296735
0	31625	18847.206945074064	4.286688948345
0	31657	18863.016281282037	6.991212924702
0	31660	18864.948060636289	4.689642714895
0	31670	18872.515102521816	4.35835148044
0	31682	18883.421215323896	2.211757955172
0	31690	18886.705347541326	3.002563068431
0	31695	18888.388252186031	8.008795553655
0	31705	18901.246025194297	3.62746232833
0	31710	18914.412617290239	1.553271731548
0	31734	18923.962315161819	6.778897069358
0	31774	18936.242655215495	19.443728368706
0	31777	18937.824258635089	6.789754596022
0	31780	18939.143407167576	3.442776258546
0	31795	18948.279624826076	7.276597442923
0	31815	18978.415498646862	3.641180872459
0	31840	18988.429282250311	4.683654297482
0	31855	18996.017177238217	2.033616231714
0	31882	19022.220524209887	8.271452237226
0	31890	19025.378849910535	2.228511959758
0	31920	19052.551329769051	1.506911849417
0	31930	19059.720893665613	3.161491931171
0	31940	19065.127668831706	4.668554564972
0	31950	19078.46203276863	8.635337614642
0	31967	19085.657124664037	5.638692885018
0	31995	19104.667384360875	19.737485648923
0	32027	19142.56165344898	5.200188577339
0	32047	19149.637602120156	1.756850590557
0	32055	19152.852798899526	2.725886455115
0	32112	19172.803741081816	1.383681765571
0	32115	19174.099260515918	31.860108874515
0	32120	19176.185411816983	17.678951450407
0	32129	19178.209066979082	21.035569222058
0	32132	19179.442218395563	2.221862993381
0	32135	19181.018225777203	21.139460491605
0	32140	19190.823427151969	1.970612880401
0	32152	19198.600442129385	1.740875067003
0	32155	19200.358883839485	8.341614556209
0	32167	19211.844685153099	3.142406810291
0	32170	19213.57432262394	4.921650141849
0	32175	19223.939308112954	1.942275249399
0	32199	19231.277822652119	2.975703137162
0	32215	19238.085221693964	11.164127066598
0	32222	19243.433061962284	1.337570202909
0	32232	19248.673319161707	5.561043260784
0	32235	19250.198221265176	1.975286097004
0	32247	19263.808702030278	1.593210306764
0	32265	19273.491798249861	13.412214607013
0	32290	19288.978489174355	4.808239480375
0	32320	19323.167321039824	11.174122868807
0	32332	19338.119437167647	3.830971658912
0	32359	19346.173364177759	3.711399876574
0	32367	19349.581277248863	10.68190974888
0	32375	19354.318985019173	13.511507989547
0	32389	19361.233488723945	5.372391369924
0	32412	19372.866890563084	13.07201126873
0	32420	19378.546708277348	1.90880217161
0	32425	19380.7842268896	1.253313431889
0	32432	19391.20317394271	1.351437650807
0	32435	19392.994224375705	1.934395717489
0	32455	19407.845764790047	4.60330211347
0	32475	19426.561161317822	7.890401696442
0	32480	19433.428684426806	1.4682380246
0	32517	19453.402764790829	10.313568845145
0	32522	19455.057034256261	9.220437457882
0	32530	19458.064032151502	2.611760312786
0	32537	19460.026046962324	11.607757217571
0	32545	19463.327012331161	4.575879795101
0	32555	19468.687480578755	1.817081186548
0	32569	19476.266112595406	5.206768552978
0	32572	19477.609348121081	2.291205281064
0	32575	19478.842022944224	2.680381534116
0	32580	19483.222300485202	1.480165805854
0	32585	19489.68269566945	1.775782044791
0	32592	19494.849100349399	1.794244666956
0	32595	19496.672841997745	2.275612552652
0	32605	19505.44729997608	4.740221788299
0	32610	19517.07541921438	1.756436602771
0	32617	19532.097085051769	1.931932965107
0	32620	19533.768207228528	2.993840675551
0	32632	19541.209084043299	3.179924556968
0	32637	19542.718888636139	2.613270920541
0	32650	19549.286919450273	7.272457392762
0	32655	19556.719291758075	1.204981903173
0	32689	19571.045370385354	13.109067073119
0	32694	19572.9209497276	3.729550740851
0	32697	19574.898024890316	9.522902537446
0	32700	19576.716084868019	5.207896524764
0	32751	19604.465840713909	8.263729085288
0	32754	19606.070081009014	21.844370984547
0	32757	19607.478686372793	7.491756609665
0	32774	19611.76421081019	1.204555583559
0	32777	19613.468108956007	5.631982074418
0	32785	19616.771663223257	2.944332026369
0	32807	19634.523762811237	1.365817196108
0	32815	19638.002689996703	6.487613800829
0	32820	19650.818173292561	1.610659134574
0	32825	19652.56894432229	1.659248808585
0	32840	19661.400884048768	6.82086552362
0	32847	19667.599814608602	1.444980609044
0	32850	19669.477800917907	3.106021437064
0	32860	19674.649180331747	2.022239958273
0	32882	19686.429293063903	15.138220502018
0	32887	19687.925719731549	2.684579992543
0	32890	19689.498683026495	7.004281689395
0	32920	19718.705000756297	6.698464977866
0	32937	19745.480807694502	3.676983261579
0	32944	19747.242912291817	6.803178879245
0	32976	19757.381457807205	3.519183017385
0	32979	19758.887056422129	2.723788944801
0	32982	19760.13204567571	19.321675294731
0	32992	19764.347093943026	1.877299825847
0	32995	19765.548402158249	2.374368302589
0	33007	19773.644553996043	4.480091582199
0	33020	19777.905299301984	4.647813652806
0	33030	19783.756232150877	3.825396658308
0	33059	19799.512555800493	13.019702671614
0	33070	19804.84529307369	10.319707829954
0	33080	19814.597135110905	2.944459008278
0	33095	19825.029187277832	2.637220669203
0	33107	19828.865032033788	1.700058329478
0	33110	19830.481030379029	10.962595446454
0	33130	19840.894845961239	7.555739531685
0	33160	19855.06331336386	9.444509476102
0	33201	19871.093846865841	21.449832678464
0	33207	19874.507127558537	8.199219072514
0	33232	19882.224452447057	23.570076978733
0	33261	19891.087919303686	14.92172504685
0	33266	19892.765187561982	4.458644395034
0	33274	19896.307291386933	18.172545975831
0	33277	19897.632847492681	21.058137062924
0	33299	19903.901915819295	5.72363270444
0	33302	19905.174076058626	5.311326605398
0	33320	19912.132677044269	2.533263026738
0	33330	19919.394717469052	5.111889554556
0	33372	19942.618203072929	1.719092883356
0	33414	19955.100592158296	1.908273925713
0	33429	19959.7613720584	17.070742329527
0	33434	19961.717596195013	3.276908160388
0	33455	19970.066480671516	24.306835728223
0	33475	19988.799236352469	1.242058551498
0	33489	19999.817443799032	1.985857033543
0	33492	20001.273562400593	9.392094328026
0	33495	20003.006934018052	4.800053479515
0	33517	20016.200768595857	2.095924213498
0	33539	20022.851141044078	9.277698771872
0	33544	20024.552156331716	6.492725083026
0	33562	20032.941064568166	1.446362528391
0	33591	20041.309916058815	8.701611002287
0	33596	20043.049380338079	4.774045326848
0	33629	20054.445249886698	13.170675251377
0	33638	20055.841024731359	4.064416092503
0	33643	20057.82780197773	5.524922902716
0	33653	20061.28934926249	12.012520137175
0	33658	20062.67729507394	2.594920170463
0	33661	20064.073884248434	21.477595091226
0	33664	20065.414071529804	3.819123697821
0	33695	20076.786676454833	10.04584654288
0	33700	20080.172965568219	7.319114528454
0	33710	20096.482463282439	7.687351881899
0	33728	20114.977270680552	3.142828791839
0	33736	20118.12688468199	6.821794704162
0	33744	20120.804964575058	8.90312063918
0	33784	20134.6986012955	19.712797964146
0	33787	20136.228362095429	12.028118601811
0	33804	20141.892944030201	2.403296146432
0	33809	20143.12328324776	2.976009001665
0	33817	20146.310515676176	3.38030921349
0	33832	20153.203526019796	13.869178113164
0	33840	20156.460327154703	2.409636407524
0	33850	20170.767526227145	4.654279200891
0	33875	20209.308014748635	6.024229233808
0	33885	20217.704196883697	2.837169666493
0	33892	20223.803624280392	1.48015559651
0	33905	20229.446008353067	2.563500370508
0	33915	20248.364207559935	1.56972252354
0	33939	20259.657839475781	7.736218719653
0	33944	20261.170373792596	2.189209938938
0	33947	20262.432758137233	2.92609971377
0	33965	20274.675908054985	1.310183387995
0	34019	20291.134722099017	13.123938660698
0	34022	20292.373672543775	32.109061755672
0	34032	20295.367478890057	1.509480536729
0	34040	20299.709888973542	9.175762214979
0	34047	20307.580488053	1.817579159513
0	34067	20320.861854844918	1.649805092253
0	34070	20322.852611716656	17.066535360006
0	34075	20330.490813447046	1.675178014487
0	34080	20336.653308302986	1.496801755764
0	34095	20351.999687676744	9.164801423141
0	34105	20359.579069323901	5.695976938287
0	34115	20367.0668399752	3.568162122523
0	34120	20373.508199108227	1.360490148515
0	34130	20376.898577919141	3.307083152181
0	34135	20384.415674127403	1.749121312238
0	34140	20401.080979534379	1.267670080625
0	34145	20403.682170915963	1.957596583106
0	34177	20424.520848792214	15.510845473105
0	34190	20429.244613712635	7.786730852399
0	34200	20433.818693594629	13.391477963714
0	34212	20439.646051124963	1.653156758158
0	34229	20445.662311852786	7.63352554517
0	34232	20447.66034667256	42.94809879513
0	34244	20450.850792791571	2.028098771254
0	34247	20452.366716087486	3.518667809132
0	34252	20454.070948825653	8.729167249511
0	34270	20463.861957643313	11.141617284664
0	34285	20471.80418380955	5.710100685967
0	34292	20486.759798033763	1.837164945155
0	34295	20488.363012420614	3.287334375059
0	34321	20495.640243032859	1.793443544582
0	34324	20497.603307814994	8.685018662018
0	34386	20519.563553140982	2.649146926142
0	34395	20524.809416910372	33.684995258322
0	34400	20527.471405823548	21.01945148655
0	34422	20535.68153793477	5.712467904057
0	34458	20545.74581157547	8.855973476804
0	34463	20547.343000322399	11.745678728468
0	34466	20548.953890571189	30.485629049303
0	34480	20555.481382381176	8.791561307853
0	34542	20584.712370136498	10.50143030532
0	34547	20586.387128717943	5.626680588052
0	34550	20587.654198612205	1.983748187973
0	34572	20600.590409708559	5.154278459916
0	34575	20602.039538962744	7.780348458685
0	34582	20619.187515321894	1.477726255357
0	34592	20623.335044739907	1.998542909697
0	34595	20624.712723658	6.886812788873
0	34600	20633.528152702978	1.769719359092
0	34607	20647.668406541873	1.506973137707
0	34617	20651.011273178685	2.239359771269
0	34620	20652.441807227063	5.243710096217
0	34627	20658.361864039415	1.981772058643
0	34635	20663.531494776368	5.845171638198
0	34640	20674.823196098364	1.541436784714
0	34650	20681.081153810856	3.791757495099
0	34655	20684.738410195988	1.361802920885
0	34662	20692.796360553623	1.692192335054
0	34677	20700.018571400511	7.698983488979
0	34690	20705.898662781836	6.065641799187
0	34695	20708.310950323341	1.254482918046
0	34700	20730.158148668259	1.377075039968
0	34705	20732.303603160578	1.854760279693
0	34715	20743.596238466633	1.235738590173
0	34732	20751.428102512345	2.635317427376
0	34778	20765.564962995158	10.594359187805
0	34783	20767.237598583208	22.482063091898
0	34786	20768.893139648916	9.021417135213
0	34789	20770.243607186073	3.525668885439
0	34797	20772.9060205144	2.263089497556
0	34810	20788.552293605729	1.565743754059
0	34825	20817.106952196786	1.85845008567
0	34835	20827.113975766574	3.686852478922
0	34850	20837.364989683401	1.221497502178
0	34865	20872.563485277119	1.96800121665
0	34875	20882.077882393913	3.855272754733
0	34916	20901.200877517177	10.950079459103
0	34922	20904.04674461381	18.364136691683
0	34962	20917.328151576817	17.273177954729
0	34967	20918.598181881793	24.390867550051
0	34970	20920.062212778665	2.644114931922
0	34975	20924.190763125798	1.340180741251
0	34985	20932.897160704711	4.228220249151
0	34990	20936.786658545754	1.4035516968
0	35000	20958.206495807665	4.16678289248
0	35015	20962.733320034765	4.480290592835
0	35020	20964.123196567289	5.086842965363
0	35029	20967.297087870565	1.593626449816
0	35052	20975.972196672698	4.820422329248
0	35057	20977.498902048012	11.584132439437
0	35062	20979.217386271087	2.134508088776
0	35089	20988.273652712763	19.272332357121
0	35094	20990.258647408099	24.501737553832
0	35107	20994.319190456109	12.329639101493
0	35124	21000.261522467126	1.977532379375
0	35134	21003.357261641015	3.918051037388
0	35139	21004.745752351981	13.69506196758
0	35142	21006.394419770938	3.115870145333
0	35145	21008.166078120906	4.031772349602
0	35152	21014.969209665696	1.736500906199
0	35165	21019.788333019878	1.984040591689
0	35184	21024.995628519561	11.179006729529
0	35187	21026.971733967606	3.583479255323
0	35202	21036.171636045865	11.862033784816
0	35227	21047.501417901269	7.702127679073
0	35240	21052.421102467846	12.202343712536
0	35257	21064.562268560631	6.353543024285
0	35289	21080.714956447533	7.107392503507
0	35303	21084.411144323511	3.084246396907
0	35313	21088.082122188856	3.167102329194
0	35318	21089.739534840596	3.792055789505
0	35321	21091.439076116917	13.375688063943
0	35374	21108.919589590329	13.531045800021
0	35382	21112.232387955162	4.668678717722
0	35397	21117.535442526572	12.372418133225
0	35400	21118.754621891797	1.283549672622
0	35412	21123.593553836197	1.364059845731
0	35417	21125.340746880994	6.070954432958
0	35429	21128.558195890226	2.513975926004
0	35437	21132.061792636775	3.507553509553
0	35449	21136.306291799347	11.064915562492
0	35452	21137.881985849614	2.859688671387
0	35465	21146.580218319761	10.405691043225
0	35485	21157.531385098059	8.317141618395
0	35495	21162.164323674501	1.297910843417
0	35523	21172.465524415878	5.30116210375
0	35531	21175.769647436609	3.448417926828
0	35555	21181.859699545821	9.455427529539
0	35563	21184.556720421856	17.385388206932
0	35584	21193.67140697783	4.451895953049
0	35592	21197.350127980878	22.684111098406
0	35608	21200.829591776077	15.967444069493
0	35616	21204.361153487322	22.57700670981
0	35621	21205.930028375258	6.710728966491
0	35624	21207.795330626537	6.828868529944
0	35627	21209.252677939107	10.698621984691
0	35652	21221.072206081575	5.29493837338
0	35655	21223.050248725465	10.702640928741
0	35669	21233.709351343789	2.457355096265
0	35672	21235.699538046808	4.248543750705
0	35690	21246.929914809407	16.145638985634
0	35702	21258.766811312346	3.656836457549
0	35727	21268.001663087504	7.741190291517
0	35741	21271.72174758968	16.656677795228
0	35744	21273.096510018232	2.950623597966
0	35796	21289.216429548565	21.963319584533
0	35804	21292.764394015115	11.187797781822
0	35812	21295.889423039783	25.350081652372
0	35820	21300.464966708692	17.55873934791
0	35830	21309.422862715555	4.688119535339
0	35835	21322.200395917479	1.770272690617
0	35845	21325.946944789813	3.447842729274
0	35860	21338.568861714017	2.892495722038
0	35877	21347.750699602556	2.659192107928
0	35890	21354.204894347918	12.063106304596
0	35905	21366.765118493057	2.302302778853
0	35919	21377.31937628559	1.8185395943
0	35922	21379.155084243074	5.33997854294
0	35935	21388.751518998682	1.417923576571
0	35969	21416.17119102434	7.208589485846
0	35983	21419.647129301286	12.645295776326
0	35986	21420.881157404302	10.541104900431
0	35992	21424.121482502228	9.159735715665
0	36012	21433.353094707794	20.587322576011
0	36020	21437.765231689	11.557919859134
0	36030	21455.650964845489	3.185982185487
0	36035	21468.418581025749	1.319654377922
0	36060	21497.679080520103	1.345248800889
0	36074	21502.95937894103	1.810950357839
0	36082	21506.346367356971	6.9791267377
0	36092	21509.313418334345	1.315619738773
0	36097	21511.042398043158	9.087555434741
0	36100	21512.787576059433	3.141454155049
0	36107	21515.781248590912	1.503908653557
0	36125	21522.760923233044	4.288574152812
0	36157	21536.152438741317	21.505100425193
0	36160	21537.539460466569	7.719976489012
0	36179	21551.712048159021	4.056741272486
0	36197	21558.385569721686	3.104549436315
0	36207	21561.960268264675	11.124329237453
0	36230	21570.97788191827	11.117741868873
0	36242	21575.349478575624	2.726468550073
0	36245	21576.837008143812	4.974733596109
0	36277	21593.518908894961	10.638780275733
0	36291	21596.968608760988	10.7356661907
0	36294	21598.437385906433	2.830240589472
0	36302	21601.788503778321	10.066225031766
0	36305	21603.429987774198	19.985457903652
0	36310	21609.351576306788	1.35274471622
0	36329	21617.171302925378	2.670222637398
0	36352	21624.751925672359	7.611660128079
0	36362	21628.580912444881	14.209792955469
0	36365	21630.573631731002	13.265901188772
0	36377	21636.144518819367	3.948513442063
0	36397	21643.905315559003	7.378493464563
0	36400	21645.217642756011	9.943505779216
0	36407	21649.657087462301	1.72132458929
0	36425	21664.676203279695	15.191886469897
0	36450	21680.6397548978	12.554983691283
0	36480	21695.135704625162	10.406541917166
0	36485	21697.777218291575	9.988965739652
0	36522	21715.985856961068	1.324386087433
0	36530	21721.566681906642	1.819110291824
0	36535	21724.557051138859	11.981259236495
0	36545	21730.075112562725	3.065729203105
0	36592	21768.850219265363	16.985024898545
0	36609	21773.844088792979	5.140558571184
0	36621	21776.651358319625	3.709513008073
0	36627	21779.64916251897	10.658775736443
0	36642	21784.727580812193	12.438085023721
0	36652	21788.058142840959	14.117745283322
0	36655	21789.971486124679	3.242338491119
0	36660	21794.209526450243	1.468085732125
0	36675	21820.172108576188	3.740254366749
0	36685	21830.057977594527	6.707612349513
0	36690	21835.946275400995	1.243324962072
0	36695	21840.029003415134	1.310924016126
0	36712	21851.001730149815	1.391175967641
0	36717	21852.895532952266	7.821569934777
0	36720	21854.821607605199	2.096669732999
0	36749	21869.568905153489	8.582144388779
0	36752	21871.363503768472	8.233709340791
0	36779	21878.752753723776	13.978819103423
0	36794	21883.210420996127	4.515685462827
0	36802	21886.404203500403	3.560381043969
0	36814	21889.333799321009	1.607947801697
0	36817	21891.237417168347	9.817539033512
0	36820	21892.736354886731	7.313774589365
0	36849	21915.763235679594	3.141559703235
0	36852	21917.131474868533	5.792040796577
0	36862	21920.486766578955	2.429198445015
0	36877	21924.989261255166	1.9341843743
0	36887	21931.923711556688	28.747886464295
0	36900	21939.859009152611	9.086212928008
0	36905	21945.225197333196	1.53427395802
0	36952	21976.121260456823	4.718225793089
0	36963	21980.702523150936	11.016672884735
0	36970	21982.189218563482	7.372352512493
0	36980	21985.93332759951	21.925197290311
0	36983	21987.870988010697	16.171518289708
0	36986	21989.517379551276	5.904394314452
0	36999	21994.57995926541	30.578203400596
0	37029	22005.196568801149	8.891175902338
0	37053	22012.541988570883	3.048019812514
0	37061	22015.811351080879	19.89698117299
0	37064	22017.574105857953	15.023745490402
0	37067	22019.515366067633	9.560352318184
0	37075	22023.985435810972	1.656267812103
0	37090	22040.823163981728	1.25905734878
0	37102	22046.595978213026	3.523659341727
0	37132	22060.405149288135	4.942880949006
0	37162	22075.109535026998	1.860668077879
0	37180	22083.949296646787	10.49360211293
0	37192	22099.506383030857	3.911266065522
0	37209	22103.886297032046	4.905108069164
0	37217	22107.052510562535	7.117577535866
0	37222	22108.766366066221	6.549422028121
0	37239	22113.156062512097	3.560422912046
0	37242	22115.086926289086	6.346049374165
0	37261	22122.050041859319	1.804670985974
0	37277	22127.693793322613	18.461806957938
0	37299	22133.991775831489	11.960984730311
0	37304	22135.740929235054	14.118867311039
0	37309	22137.107776795422	2.328707291459
0	37329	22143.389215746989	6.359527775879
0	37349	22149.587025565748	12.195421403615
0	37362	22156.368288474673	1.898812866211
0	37365	22158.357919915722	3.497107580557
0	37393	22173.069892628747	4.074566089965
0	37396	22174.509024688299	8.610526123039
0	37401	22176.16713851511	7.86139998501
0	37419	22181.960082224639	10.043393888474
0	37430	22186.313715975044	13.66141172528
0	37435	22188.699562671068	1.763947271556
0	37455	22198.990239489015	23.70492733599
0	37482	22216.290168109974	9.771272196719
0	37485	22218.180700762449	9.286760001629
0	37505	22229.776931175069	9.946103494683
0	37510	22235.039761110775	1.625693497434
0	37525	22243.197412500583	5.389367334242
0	37532	22251.544557447838	1.266372573003
0	37537	22253.181286280336	2.839264447111
0	37540	22254.863535949322	3.23835210569
0	37545	22262.472472516371	1.609620557353
0	37555	22274.667239106003	3.332342800151
0	37562	22290.946730667639	1.799435126595
0	37567	22292.184850007209	1.955240101361
0	37589	22301.452590244828	8.663947865354
0	37592	22302.734730822226	3.818785710486
0	37597	22304.103515855228	12.858078137247
0	37600	22305.499118071613	1.946008021669
0	37607	22309.750711535673	1.21548272837
0	37610	22311.412978664796	2.195190399109
0	37615	22313.769439178111	1.70307740923
0	37632	22322.446187860261	6.442737641264
0	37635	22324.196449125859	4.803214500258
0	37645	22333.276530218458	1.612655518204
0	37657	22336.236656097551	2.527942013842
0	37684	22343.00161386956	6.508783250776
0	37697	22347.620568959829	10.994206827256
0	37700	22349.441908066761	15.887831901944
0	37717	22370.544969156862	5.143431937238
0	37722	22372.078651130677	1.865738870401
0	37735	22379.405789030949	1.275190092809
0	37752	22387.350392140765	6.583268085961
0	37760	22390.782429110185	8.106018588037
0	37789	22411.38928979197	2.526773017984
0	37801	22414.674908542721	4.537064794194
0	37804	22416.148793195276	7.986276907474
0	37809	22417.48770918054	3.941453862679
0	37817	22420.668147902465	17.886756602623
0	37820	22422.023710653088	7.705395794536
0	37825	22433.891403879484	1.261660300754
0	37857	22463.14322855528	13.916187755172
0	37877	22468.788417239855	16.621278043868
0	37885	22474.289898059727	14.393334375051
0	37897	22477.942326714008	1.494191199926
0	37900	22479.516528174004	4.619602693617
0	37905	22482.067193241756	1.217934834957
0	37915	22489.37607812598	1.954251788557
0	37930	22512.703632200725	4.579149180495
0	37935	22515.882186466514	1.418395473436
0	37952	22556.653681513868	1.438537485339
0	37955	22558.558040082097	10.032257133501
0	37987	22576.628324505884	7.703870019687
0	38027	22598.448312637003	3.247068170381
0	38041	22601.716246020773	2.35030376541
0	38044	22603.527783045897	8.513169751867
0	38049	22605.504371755177	13.789135459593
0	38059	22608.649511011483	4.775279877533
0	38070	22613.752338627917	12.251530469834
0	38089	22619.166556856061	4.832187950983
0	38115	22630.725428138826	22.263692577786
0	38130	22639.506754747083	3.059253152012
0	38152	22647.455750917384	2.10342170869
0	38172	22654.001164686048	20.74465375981
0	38182	22657.853804422656	8.30927143964
0	38197	22663.421165711732	3.837333789252
0	38210	22685.598339153883	1.296166519448
0	38229	22698.714996178442	1.958586171769
0	38232	22700.380287764401	1.831503631563
0	38242	22703.809593384892	8.599661368317
0	38264	22713.698281404719	7.123992225926
0	38267	22715.311180478119	4.43031280674
0	38282	22723.363076602162	1.609192535281
0	38290	22726.517708457501	2.045275708686
0	38300	22730.625222540914	1.20115494635
0	38321	22750.021153072152	3.205965406394
0	38333	22753.832137837704	6.429111351117
0	38336	22755.298146505911	8.886420266132
0	38349	22760.262281039987	6.593190685815
0	38352	22761.831630944532	4.951457055432
0	38357	22763.226712965292	10.493361522882
0	38377	22772.706928226224	6.374741506542
0	38389	22775.554391657806	30.673248732637
0	38394	22776.927518550551	2.146284800842
0	38407	22782.555760510697	2.910092461276
0	38434	22790.694725489488	2.948268382141
0	38439	22792.05015619701	8.311071995172
0	38452	22797.357390483527	2.043317681509
0	38457	22799.33210980302	9.417147063673
0	38472	22806.959821389983	1.989482682491
0	38475	22808.8708908854	4.735488974303
0	38482	22817.852742544194	1.50965484865
0	38502	22832.533829754502	2.020452500852
0	38532	22844.476621675396	1.845232558931
0	38546	22849.158693500511	31.509282386749
0	38564	22855.354255452655	3.842998643637
0	38574	22858.278998574517	20.105174197549
0	38577	22859.692046973943	11.088751119771
0	38595	22873.221919549431	1.200966887549
0	38602	22882.666547576173	1.217001815699
0	38610	22886.580175398978	4.957404709099
0	38620	22907.271058254184	4.682336558906
0	38632	22910.756697130458	2.483691517854
0	38652	22917.915486428953	9.875119676439
0	38681	22938.240838165766	1.75066832304
0	38684	22939.659731286576	2.956133849379
0	38687	22941.160687628014	9.186656790212
0	38715	22955.652448458612	1.566094527952
0	38720	22957.656974288974	8.216021950311
0	38725	22959.419758945293	1.490401243046
0	38740	22973.366301828663	2.882751354002
0	38745	22976.928223746348	6.558867158592
0	38752	22980.136970600689	1.680883867107
0	38755	22982.07373169178	2.695294780685
0	38765	22994.736566294105	3.561369498453
0	38790	23015.544506789857	13.871830096388
0	38805	23030.356796013287	2.901117411528
0	38810	23039.122238212332	1.820687298849
0	38825	23048.803969112001	5.080908095571
0	38830	23055.509097224921	1.671395305544
0	38835	23068.611685740588	1.779540503956
0	38850	23078.25651171322	7.936780086289
0	38885	23091.39815562279	12.112821969544
0	38897	23100.946484177902	4.391567071069
0	38900	23102.370308016024	3.037568352749
0	38905	23118.531213159794	1.438812534325
0	38920	23151.572114571928	1.886438247003
0	38925	23158.818306620203	1.859195445478
0	38957	23178.497563083308	7.04521397762
0	38972	23183.372509686173	11.786821432145
0	38977	23185.127175546707	1.987227356679
0	38990	23192.11617036627	13.461640213879
0	38995	23198.820123887205	1.986451234668
0	39022	23224.185557157671	2.630138433994
0	39034	23227.470422052344	2.501606003728
0	39047	23231.990907611822	5.807819640978
0	39050	23233.445626927105	21.386136403385
0	39057	23241.618826404926	1.353389466926
0	39062	23242.994204192762	1.882073054404
0	39080	23258.359274160078	7.590394609436
0	39097	23279.445594610589	6.609516732549
0	39115	23288.205235582041	9.946803115998
0	39132	23296.935597750766	2.281872184971
0	39140	23300.371436375788	3.294405425751
0	39159	23317.070959938471	1.580356599955
0	39167	23319.972101079639	3.619561168452
0	39175	23323.741228711547	9.210110783738
0	39180	23332.070321959116	1.226285620034
0	39190	23347.620303381779	3.919347107795
0	39200	23371.214422038515	4.080527574995
0	39210	23381.834060272421	3.516513743493
0	39224	23385.906834922549	1.705026551522
0	39230	23388.723108638454	3.011894287619
0	39239	23391.315794322862	9.038778294482
0	39256	23395.91234189052	4.566492721358
0	39281	23404.056627041137	4.496071828517
0	39301	23410.84003682494	20.261132890724
0	39309	23414.408460143989	24.151740541662
0	39339	23425.054845638738	2.136242553196
0	39342	23426.483125180357	3.008248449087
0	39352	23429.034974138231	31.652214061767
0	39355	23430.581686639392	2.232026189155
0	39395	23458.420884868479	3.316979035547
0	39405	23465.957076205618	21.687983336591
0	39410	23476.287732527774	1.908212407678
0	39415	23486.096348033185	1.665134204179
0	39422	23510.811854236748	1.401234233938
0	39474	23525.22000557114	7.972833646207
0	39479	23526.666288673362	5.388795350578
[...]
8	22157	13053.455686497575	1
8	22160	13054.673638184255	2
8	22163	13056.165763061566	3
8	22165	13057.097952119717	2
8	22167	13057.172161638586	1
8	22172	13058.921859885328	0
8	22500	13237.57178451436	1
8	22501	13243.1391114783	0
8	22559	13262.04914813743	1
8	22562	13263.981030712771	2
8	22564	13264.318317374011	1
8	22566	13264.516562539685	0
8	22750	13365.091313148413	1
8	22751	13365.470526328818	0
8	22780	13379.181852027017	1
8	22781	13380.962986443688	0
8	22950	13478.376919144483	1
8	22954	13479.562404280705	0
8	22957	13479.886331753208	1
8	22959	13480.716752478827	0
8	23230	13672.481807035459	1
8	23231	13672.815183909872	0
8	23490	13851.842283477428	1
8	23491	13852.528677716263	0
8	23520	13896.533025452286	1
8	23521	13897.003451926494	0
8	23605	13952.368025225659	1
8	23606	13952.664019227054	0
8	23615	13956.156521758091	1
8	23616	13956.444011671991	0
8	23620	13957.694484982231	1
8	23621	13958.025250479615	0
8	23644	13963.513782527707	1
8	23646	13964.573971702709	0
8	23649	13965.010063868425	1
8	23651	13965.458163308039	0
8	23687	13978.480786685496	1
8	23689	13979.479270791039	0
8	24205	14374.237105753124	1
8	24206	14375.473607841885	0
8	24449	14455.177770491462	1
8	24451	14455.846245518097	0
8	24454	14456.587353245687	1
8	24456	14456.645981417912	0
8	24467	14461.085438145843	1
8	24469	14461.196792911	0
8	24587	14534.228021448596	1
8	24589	14534.341420521747	0
8	24727	14601.255721769017	1
8	24731	14604.501213823861	0
8	24940	14687.19754116487	1
8	24941	14687.488781006739	0
8	25100	14847.293466043697	1
8	25101	14848.273958672396	0
8	25105	14850.136108493059	1
8	25106	14851.037151291182	0
8	25150	14866.531214769518	1
8	25151	14867.037336915964	0
8	25155	14868.929360626498	1
8	25156	14869.242830697233	0
8	25179	14875.234964192631	1
8	25181	14875.385516100563	0
8	25852	15270.214032762704	1
8	25854	15271.225401605292	0
8	25860	15273.761919600909	1
8	25864	15274.556741684399	0
8	26230	15439.049102480229	1
8	26234	15440.942789820426	0
8	26252	15446.584546098082	1
8	26256	15448.677560065363	0
8	26347	15521.789878653006	1
8	26356	15523.875749840994	0
8	26780	15826.718362612444	1
8	26781	15827.844683171978	0
8	26847	15846.037671219541	1
8	26852	15848.013453510401	0
8	26867	15852.727300822905	1
8	26871	15852.835669984398	0
8	27295	16078.703499230122	1
8	27296	16078.747748045053	0
8	27572	16225.306595707664	1
8	27576	16225.997880649889	0
8	27910	16431.469645915451	1
8	27911	16432.158869050903	0
8	27915	16433.613649022108	1
8	27916	16433.856486873747	0
8	28310	16749.606073590499	1
8	28311	16754.145162081075	0
8	28440	16815.839900967321	1
8	28449	16819.785101483281	0
8	28454	16820.625413884503	1
8	28456	16820.874518426877	0
8	28464	16824.012150864956	1
8	28466	16825.26471406471	0
8	28517	16848.71255621727	1
8	28520	16850.190234366836	2
8	28521	16851.12936271577	1
8	28524	16851.992129933166	0
8	28532	16853.783714678127	1
8	28535	16855.401778719376	2
8	28536	16855.832048775048	1
8	28539	16856.724634706366	0
8	28555	16862.461919056044	1
8	28556	16862.757427019748	0
8	28855	17071.402310994915	1
8	28856	17073.593167192087	0
8	28867	17076.71426395473	1
8	28869	17077.063252617917	0
8	28880	17081.144553850935	1
8	28881	17081.853468049873	0
8	29067	17188.788603400877	1
8	29069	17189.288825328657	0
8	29155	17251.755032484744	1
8	29156	17251.819586872745	0
8	29350	17402.906413967585	1
8	29351	17403.20059203669	0
8	29360	17406.58085929561	1
8	29361	17408.541010900104	0
8	29497	17501.509431007104	1
8	29499	17501.629621728204	0
8	29516	17505.766369396978	1
8	29520	17506.805745180257	0
8	30032	17789.194231574422	1
8	30034	17789.238503640222	0
8	30071	17800.64889689721	1
8	30073	17801.766746497527	0
8	30076	17802.503480814396	1
8	30078	17802.617624190639	0
8	30222	17879.445291904843	1
8	30224	17879.814643995898	0
8	30235	17884.072819660155	1
8	30236	17884.111587280777	0
8	30305	17921.26215276224	1
8	30306	17924.999169406867	0
8	30465	18017.078612128219	1
8	30466	18017.484363478119	0
8	30470	18018.739754123496	1
8	30471	18020.769708465247	0
8	30661	18151.60490576011	1
8	30671	18156.73342437336	0
8	30682	18160.069687942805	1
8	30686	18161.05244537797	0
8	30839	18254.207044380085	1
8	30843	18255.901325317382	0
8	30846	18256.088474396171	1
8	30848	18256.368691790986	0
8	30859	18260.86482516315	1
8	30861	18262.175755861452	0
8	31120	18451.27899155725	1
8	31121	18451.763189825192	0
8	31257	18588.22303317402	1
8	31261	18590.713613382519	0
8	31330	18631.064706965752	1
8	31331	18632.732725283887	0
8	31387	18662.713251099729	1
8	31389	18662.803573093882	0
8	31404	18667.648655683913	1
8	31406	18668.603139264067	0
8	31409	18669.40983759071	1
8	31411	18669.935716944551	0
8	31455	18684.364825540216	1
8	31456	18684.822489219261	0
8	31590	18817.143454263112	1
8	31591	18817.451820607437	0
8	31595	18818.705571029103	1
8	31596	18820.588734752837	0
8	31762	18933.167960578224	1
8	31766	18934.716768682644	0
8	32089	19165.344377839646	1
8	32092	19166.750644625618	2
8	32094	19166.812553356972	1
8	32097	19168.32099129901	2
8	32099	19169.034400745021	1
8	32102	19170.129392148635	2
8	32105	19171.396389547071	3
8	32109	19172.471062938716	2
8	32116	19174.426405687405	1
8	32121	19176.963625443967	0
8	32507	19448.500424007916	1
8	32510	19450.125495180705	2
8	32511	19452.190004800956	1
8	32514	19452.314880829379	0
8	32675	19567.384415140718	1
8	32679	19568.64488000592	0
8	32875	19683.806628430156	1
8	32876	19685.117180080587	0
8	33170	19861.677236970666	1
8	33171	19862.672637773589	0
8	33182	19866.167997048707	1
8	33189	19868.015663127842	0
8	33229	19880.418238035128	1
8	33234	19882.688528878241	0
8	33239	19884.21462511877	1
8	33241	19884.561110200832	0
8	33244	19885.580381173738	1
8	33246	19886.16134687095	0
8	33249	19887.552649892219	1
8	33251	19887.620208496574	0
8	33389	19947.566293753804	1
8	33406	19953.84903064979	0
8	33614	20049.295675849802	1
8	33617	20050.674942248016	2
8	33619	20051.72685826391	1
8	33631	20054.501603805096	0
8	33774	20130.904539047255	1
8	33776	20132.835057306093	0
8	34007	20287.694627366523	1
8	34009	20288.333114011453	0
8	34155	20410.435127680103	1
8	34156	20414.686286604514	0
8	34160	20415.997886355145	1
8	34166	20421.731648094943	0
8	34169	20421.9679620439	1
8	34171	20422.825363073531	0
8	34174	20423.308177096192	1
8	34179	20425.659088720643	0
8	34182	20425.876070142146	1
8	34184	20427.086434638972	0
8	34187	20427.384517746959	1
8	34191	20429.847657833616	0
8	34215	20440.887390213753	1
8	34216	20442.30054655696	0
8	34310	20492.841970426287	1
8	34314	20494.861350849101	0
8	34355	20510.069718907749	1
8	34356	20511.335239039285	0
8	34360	20513.041319020202	1
8	34361	20513.236817572564	0
8	34392	20523.48312708374	1
8	34396	20526.15541923197	0
8	34415	20533.041848918946	1
8	34416	20534.275633418751	0
8	34565	20598.500001518607	1
8	34566	20599.344635047368	0
8	34750	20758.244900728703	1
8	34754	20759.808534913194	0
8	34895	20892.343164402322	1
8	34896	20892.999092307848	0
8	34902	20894.557276432377	1
8	34905	20896.137580764827	2
8	34906	20899.270932198962	1
8	34911	20900.109364189483	0
8	34940	20910.506956167607	1
8	34941	20911.695098656081	0
8	35044	20972.40160500857	1
8	35046	20972.875925265605	0
8	35049	20974.02643506865	1
8	35059	20979.135518388483	0
8	35065	20980.561633045254	1
8	35066	20980.891276035572	0
8	35074	20982.193931224684	1
8	35077	20983.572136125642	2
8	35081	20986.997793989763	1
8	35086	20987.901765871926	0
8	35215	21043.595762012607	1
8	35221	21046.183145787841	0
8	35578	21190.161358978619	1
8	35581	21191.958338398506	2
8	35586	21194.381352956751	1
8	35594	21198.079705966888	0
8	35710	21261.604602300995	1
8	35711	21262.100870012315	0
8	35717	21264.062335624741	1
8	35719	21265.164037692002	0
8	35755	21277.208730665418	1
8	35756	21277.209857175354	0
8	35954	21412.020097992129	1
8	35959	21413.262335018001	2
8	35961	21413.552963417184	1
8	35964	21414.854069694995	2
8	35971	21416.206760809323	1
8	35973	21416.620605564688	0
8	36005	21429.194953172399	1
8	36006	21431.488233995616	0
8	36150	21534.513371154481	1
8	36151	21534.779942682711	0
8	36274	21591.968703217586	1
8	36279	21593.88806948534	0
8	36282	21595.063037009505	1
8	36286	21595.772278257502	0
8	36347	21623.550206768467	1
8	36349	21624.195966739833	0
8	36385	21639.678331981143	1
8	36386	21640.802214571479	0
8	36730	21864.458826682831	1
8	36736	21865.601956320727	0
8	36955	21977.580374431692	1
8	36958	21979.421499261528	2
8	36960	21980.573964044696	1
8	36965	21981.479821985329	0
8	37017	22001.74642930635	1
8	37019	22002.421667668392	0
8	37272	22126.41495249374	1
8	37274	22127.384909150662	0
8	37317	22140.009901878146	1
8	37319	22140.185636582813	0
8	37425	22184.726009491527	1
8	37426	22185.061643628088	0
8	37575	22295.327525421332	1
8	37576	22297.990945149777	0
8	37625	22320.878381395855	1
8	37626	22320.947507657412	0
8	37745	22384.536155644655	1
8	37746	22385.834560827296	0
8	37840	22455.339924831838	1
8	37841	22456.901607049892	0
8	37845	22458.699169187324	1
8	37850	22461.415663851347	2
8	37851	22461.588353786613	1
8	37854	22462.670465527316	0
8	37867	22465.812685081172	1
8	37869	22465.927238486957	0
8	38022	22596.846702308187	1
8	38024	22596.976071267789	0
8	38032	22599.768123106265	1
8	38034	22600.13681549053	0
8	38065	22612.053803634809	1
8	38066	22612.535876426664	0
8	38344	22758.537973704633	1
8	38346	22760.193389974965	0
8	38365	22767.871106897201	1
8	38366	22769.258368128038	0
8	38529	22842.998104728663	1
8	38536	22847.334449384078	0
8	38559	22853.794986333787	1
8	38561	22854.270161909176	0
8	38965	23181.322817927996	1
8	38966	23181.55507798464	0
8	39284	23405.412278527802	1
8	39286	23405.977292396239	0
8	39289	23407.344455266966	1
8	39291	23407.67123710218	0
8	39294	23409.081523164584	1
8	39296	23409.680360947934	0
8	39487	23529.978935230939	1
8	39490	23531.274234654984	2
8	39493	23533.012904431714	3
8	39495	23533.266733102348	2
8	39497	23534.242298407342	1
8	39500	23534.797797640456	2
8	39502	23535.0794219795	1
8	39512	23537.462567956416	2
8	39514	23538.781174275206	1
8	39519	23538.995916607411	0
8	39534	23544.090816856219	1
8	39536	23545.082068323145	0
8	39810	23692.921409745393	1
8	39811	23694.182817023002	0
8	39937	23745.309073710135	1
8	39941	23748.343751053845	0
8	40317	23988.189634933618	1
8	40319	23988.678667261054	0
8	40322	23989.389994158519	1
8	40324	23989.835670525141	0
8	40365	24020.356981257114	1
8	40371	24022.343503215084	0
8	40379	24024.876555590426	1
8	40381	24025.022200262844	0
8	40406	24033.032841624228	1
8	40411	24034.351042131243	2
8	40413	24034.658565508673	1
8	40415	24035.508666741551	0
8	40418	24035.926634384228	1
8	40420	24036.679208368318	0
8	40439	24043.22000807142	1
8	40441	24044.077446190441	0
8	41110	24427.398549676116	1
8	41114	24429.135577075182	0
8	41117	24429.407701964718	1
8	41119	24430.759797954048	0
8	41404	24551.713330631756	1
8	41406	24552.704103946023	0
8	41419	24556.159186253191	1
8	41421	24556.910859481394	0
8	41469	24571.146606706508	1
8	41473	24572.423347662325	0
8	41522	24588.189916223715	1
8	41524	24588.884125627738	0
8	41630	24642.885598280235	1
8	41631	24642.901793357228	0
8	41741	24688.985160176933	1
8	41746	24691.835031038527	0
8	41827	24719.316850719706	1
8	41831	24720.846125094634	0
8	41861	24729.095822470304	1
8	41864	24730.911706318561	2
8	41868	24731.600332296413	1
8	41873	24733.83495515601	0
8	41883	24735.477769376192	1
8	41885	24735.745397417899	0
8	42117	24857.129119852173	1
8	42119	24857.757873698293	0
8	42122	24858.459996784466	1
8	42124	24859.593159255021	0
8	42127	24860.231513332377	1
8	42130	24862.071792447182	2
8	42131	24866.654492980726	1
8	42136	24869.167813561615	0
8	42244	24903.982727707063	1
8	42246	24904.155513712067	0
8	42249	24905.636588728872	1
8	42253	24906.708545854505	0
8	42256	24906.917283590396	1
8	42258	24907.526746210726	0
8	42432	24967.269965285359	1
8	42434	24968.088118612337	0
8	42620	25106.925825687913	1
8	42621	25107.710297418086	0
8	43307	25653.641167147032	1
8	43309	25654.910198722842	0
8	43374	25676.054444537259	1
8	43376	25677.402775555704	0
8	43379	25677.57347384034	1
8	43381	25677.998457568806	0
8	43462	25718.019939217576	1
8	43465	25719.949459197604	2
8	43466	25721.579512781218	1
8	43469	25721.805889453836	0
8	43717	25880.807232510559	1
8	43719	25882.609360474295	0
8	43754	25891.397464097924	1
8	43756	25891.678339333515	0
8	43759	25892.945976429693	1
8	43762	25894.364707022979	2
8	43764	25895.504695688223	1
8	43769	25896.975620961811	0
8	43932	25961.221000116465	1
8	43935	25962.97510644268	2
8	43936	25964.402964162296	1
8	43942	25966.237992065801	2
8	43944	25967.252796890787	1
8	43946	25967.527075810084	0
8	43949	25968.103501195675	1
8	43951	25969.341219177557	0
8	43954	25969.45910425338	1
8	43956	25969.910474585068	0
8	43967	25974.373790197475	1
8	43969	25974.543589843802	0
8	43972	25976.186198055958	1
8	43976	25981.234116796869	0
8	43982	25982.514267603587	1
8	43984	25982.833712647227	0
8	44160	26079.845608618529	1
8	44161	26083.919754127785	0
8	44170	26087.281015679053	1
8	44171	26088.657386555681	0
8	44205	26126.835739997932	1
8	44216	26136.408710063712	0
8	44445	26265.123693557336	1
8	44446	26265.958654681816	0
8	44547	26355.228406065411	1
8	44549	26355.857146202033	0
8	44825	26587.939018477913	1
8	44829	26597.739641090868	0
8	44842	26601.938353922171	1
8	44845	26603.453992909705	2
8	44846	26604.857241315128	1
8	44849	26606.024830806266	0
8	44910	26640.871198565656	1
8	44911	26641.975083108385	0
8	44935	26650.860563444333	1
8	44936	26652.867876337626	0
8	44980	26692.974662511815	1
8	44981	26693.955536065096	0
8	45025	26707.944085479239	1
8	45029	26710.128595987977	0
8	45192	26804.80152994805	1
8	45194	26806.212421639985	0
8	45197	26806.510268572168	1
8	45199	26807.396718385112	0
8	45430	26920.954819893141	1
8	45431	26922.82176703827	0
8	45617	27047.384356608245	1
8	45619	27047.457024303155	0
8	45625	27050.324781383205	1
8	45626	27051.353704856006	0
8	45635	27054.40481401444	1
8	45636	27054.705023588206	0
8	45642	27056.345957361314	1
8	45644	27056.506838109183	0
8	45759	27144.894899223013	1
8	45763	27145.848909414055	0
8	45766	27146.480043554133	1
8	45770	27147.37131876593	0
8	45776	27149.577608504905	1
8	45778	27149.670984849165	0
8	45781	27151.38105722574	1
8	45783	27152.017545356205	0
8	45862	27193.144198596724	1
8	45864	27193.15916435625	0
8	45975	27243.661850945682	1
8	45976	27244.317085284556	0
8	45997	27250.806456202831	1
8	46000	27252.321347128976	2
8	46005	27255.231008792397	3
8	46011	27258.289488829291	2
8	46025	27259.713807002789	1
8	46027	27260.346701383044	0
8	46102	27288.488259074729	1
8	46104	27289.3642282065	0
8	46330	27461.62306300121	1
8	46331	27466.082315032078	0
8	46592	27650.94079948937	1
8	46594	27651.917353206713	0
8	46688	27717.042423091411	1
8	46693	27718.837277441354	0
8	46802	27777.728143590966	1
8	46806	27779.105282314177	0
8	46867	27801.693561497295	1
8	46869	27802.434240489563	0
8	46992	27894.27472273763	1
8	46994	27895.376129899038	0
8	47010	27900.545997650733	1
8	47011	27902.317638565048	0
8	47015	27903.687382761582	1
8	47016	27904.770974288076	0
8	47180	28004.816449882019	1
8	47191	28008.943538555315	0
8	47270	28052.183257033576	1
8	47271	28053.365333587789	0
8	47275	28055.349669084252	1
8	47276	28056.550565678217	0
8	47545	28232.274884027905	1
8	47546	28232.748257095316	0
8	47720	28357.153217803652	1
8	47721	28358.425733278139	0
8	47765	28379.29623969936	1
8	47770	28381.555127969444	2
8	47771	28383.163798255659	1
8	47774	28383.355428779355	0
8	47779	28384.972091593034	1
8	47781	28385.469322568685	0
8	47955	28463.750018888392	1
8	47956	28467.745801763173	0
8	48010	28513.040516301466	1
8	48011	28514.329527016589	0
8	48377	28688.906741229077	1
8	48379	28690.086687903189	0
8	48387	28691.758864399796	1
8	48389	28691.912694444942	0
8	48465	28750.902155367108	1
8	48466	28752.313468673446	0
8	48712	28963.866296879758	1
8	48714	28964.271040749225	0
8	48786	28992.371478375359	1
8	48789	28994.239883308797	2
8	48791	28994.832814554034	1
8	48795	28995.417107288361	0
8	48813	29000.762482837899	1
8	48818	29002.369380299686	2
8	48822	29002.623012883626	1
8	48824	29003.437194425657	0
8	48827	29003.604388306788	1
8	48829	29004.739410034731	0
8	48847	29010.032418675845	1
8	48853	29012.918864603837	2
8	48855	29013.820199013106	1
8	48857	29014.379674244991	0
8	48860	29014.7561065893	1
8	48862	29015.122586384314	0
8	48884	29024.113002793616	1
8	48889	29025.857558945166	0
8	49019	29081.535931346359	1
8	49024	29083.88045532753	0
8	49034	29085.823796142804	1
8	49038	29086.451406429342	0
8	49067	29097.306553825902	1
8	49069	29097.864337920583	0
8	49130	29115.854328686166	1
8	49132	29117.222554112708	0
8	49135	29117.589751823041	1
8	49137	29118.703748127392	0
8	49352	29208.579197520539	1
8	49354	29208.716418496859	0
8	49775	29424.128370849667	1
8	49776	29426.878294711413	0
8	49990	29512.127924644479	1
8	49992	29512.201687817232	0
8	50533	29793.544901659172	1
8	50535	29794.197102381927	0
8	50546	29797.96932374781	1
8	50553	29799.590210697446	2
8	50555	29799.921219611447	1
8	50560	29802.099569026658	0
9	18264	11167.837057865838	1
9	18266	11168.215083026653	0
9	18269	11169.194099944698	1
9	18274	11172.007468777758	0
9	18277	11172.352516269179	1
9	18281	11172.963745728427	0
9	19130	11587.782405520874	1
9	19134	11589.986402028799	0
9	19526	11771.309074832759	1
9	19533	11772.95285045847	0
9	20100	12065.364158352807	1
9	20101	12065.721899960121	0
9	20739	12415.40001908744	1
9	20741	12415.709698560928	0
9	20750	12420.286031190103	1
9	20751	12421.246634925629	0
9	20755	12422.52516554455	1
9	20756	12423.812564839458	0
9	20762	12425.157076060994	1
9	20766	12428.569575548404	0
9	20772	12429.922226008632	1
9	20779	12433.003827112198	0
9	21746	12927.001275273116	1
9	21751	12928.851984325207	0
9	21889	12972.697196265198	1
9	21892	12974.341523096412	2
9	21896	12975.897480422884	1
9	21900	12976.055355595483	0
9	21913	12979.424242761619	1
9	21915	12980.232585977536	0
9	22390	13178.530157757686	1
9	22391	13180.396018121784	0
9	23097	13603.34945385991	1
9	23106	13606.875385932577	0
9	23547	13905.500396578247	1
9	23549	13905.638368390683	0
9	24265	14396.609043410127	1
9	24266	14396.668787954513	0
9	24897	14657.576023798107	1
9	24899	14658.171032692279	0
9	25292	14924.43488603411	1
9	25294	14924.604167801564	0
9	26855	15849.435074019602	1
9	26873	15852.900031924224	0
9	26920	15870.720841134508	1
9	26923	15872.569378885236	2
9	26925	15873.740429185889	1
9	26927	15873.807041011307	0
9	26930	15874.332362808641	1
9	26932	15875.361784336563	0
9	28330	16760.492397498262	1
9	28334	16760.951236574178	0
9	28705	16983.224801412669	1
9	28706	16983.639160820317	0
9	29662	17569.804882122634	1
9	29674	17574.15711408719	0
9	29682	17576.7355496343	1
9	29691	17579.282244646426	0
9	30375	17965.569581250741	1
9	30376	17967.173280728025	0
9	30380	17968.579418437903	1
9	30381	17971.112847270986	0
9	33350	19931.68827011401	1
9	33351	19932.107866155877	0
9	33365	19939.185484036799	1
9	33369	19941.850230146089	0
9	33377	19944.586351175913	1
9	33379	19945.186342349431	0
9	35332	21095.68295858973	1
9	35334	21095.798386688116	0
9	37115	22055.395027207085	1
9	37119	22056.402703240182	0
9	41985	24799.422746249339	1
9	41986	24801.03787409021	0
9	41995	24804.209482135348	1
9	41996	24804.367923684589	0
9	42955	25425.536700501871	1
9	42956	25426.724154980378	0
9	43860	25926.343287422414	1
9	43869	25929.490375377561	0
9	45935	27221.80695177267	1
9	45936	27222.510863096805	0
9	46440	27557.796639598064	1
9	46444	27559.208531093598	0
9	46475	27569.60037167581	1
9	46476	27570.685289237092	0
9	47907	28437.973709875695	1
9	47914	28440.130997016877	0
9	48740	28974.050143537558	1
9	48744	28976.947917786921	0
9	48997	29075.003328734431	1
9	49001	29076.004276181284	0
9	49242	29159.486488210882	1
9	49245	29161.130744035083	2
9	49246	29162.274175451411	1
9	49249	29162.783032882768	0
9	49257	29166.001125481627	1
9	49259	29166.653845327766	0
9	49820	29459.365017418862	1
9	49826	29462.924957214761	0
9	50034	29528.037759252729	1
9	50039	29530.764034223071	0
9	50042	29531.188972776102	1
9	50045	29532.62916570315	2
9	50046	29533.132080482788	1
9	50049	29533.710425464018	0
9	50055	29535.844672181554	1
9	50056	29536.59368908053	0

