version 2
run Third_exit_8-4-20191023-00:20:24-5304
attr configname Third_exit_8
attr datetime 20191023-00:20:24
attr experiment Third_exit_8
attr inifile omnetpp.ini
attr iterationvars ""
attr iterationvarsf ""
attr measurement ""
attr network ResponseTimeNetwork
attr processid 5304
attr repetition 4
attr replication #4
attr resultdir results
attr runnumber 4
attr seedset 4
param **.Source.interArrivalTime exponential(6s)
param **.jobPriority bernoulli(0.8)
param **.PS.serviceTimeU1 "uniform(1.2s, 2.0s)"
param **.PS.serviceTimeU2 "uniform(2.4s, 2.8s)"
param **.SS1.serviceTime exponential(1.4s)
param **.SS2.serviceTime exponential(2s)
param **.PS.exitProbability bernoulli(0.8)

vector 0 ResponseTimeNetwork.SS1 queueLength:vector ETV
attr interpolationmode sample-hold
attr title "queue length, vector"
vector 1 ResponseTimeNetwork.SS2 queueLength:vector ETV
attr interpolationmode sample-hold
attr title "queue length, vector"
vector 2 ResponseTimeNetwork.QueueU1 queueLength:vector ETV
attr interpolationmode sample-hold
attr title "queue length, vector"
vector 3 ResponseTimeNetwork.QueueU2 queueLength:vector ETV
attr interpolationmode sample-hold
attr title "queue length, vector"
vector 4 ResponseTimeNetwork.sink lifeTimeU1:vector ETV
attr interpolationmode none
attr title "lifetime of arrived jobs U1, vector"
attr unit s
vector 5 ResponseTimeNetwork.sink lifeTime:vector ETV
attr interpolationmode none
attr title "lifetime of arrived jobs, vector"
attr unit s
vector 6 ResponseTimeNetwork.sink lifeTimeU2:vector ETV
attr interpolationmode none
attr title "lifetime of arrived jobs U2, vector"
attr unit s
2	0	0	0
2	25	46.955705871244	1
2	26	47.485539986412	0
2	30	47.6877056489	1
2	31	48.689667306314	0
2	35	49.009230066238	1
2	36	50.178864379446	0
2	42	50.874938672942	1
2	43	51.856731533664	0
2	50	53.748088104316	1
2	51	54.477099435809	0
2	75	73.599588960605	1
2	77	74.067024727381	2
2	78	74.901373623483	1
2	81	76.688077755816	0
2	125	93.890837745827	1
2	127	94.654966848823	2
2	128	95.351462222981	1
2	132	95.55119797906	2
2	135	96.832801192227	1
2	139	97.454907174839	2
2	140	98.235744914572	1
2	144	99.368483289802	2
2	145	99.638072601865	1
2	149	99.706064944653	2
2	151	99.740555054615	3
2	152	101.554473531219	2
2	156	102.975317076229	3
2	157	103.403197480711	2
2	161	103.59203336527	3
2	162	105.001432777355	2
2	166	105.283445404457	3
2	167	106.749903340051	2
2	170	108.707562561492	1
2	174	109.238610727355	2
2	175	110.571713039438	1
2	178	112.105134084793	0
2	185	115.395673704542	1
2	186	115.513893430466	0
2	190	115.645471450904	1
2	192	115.958798641304	2
2	195	117.391271247873	1
2	198	119.150456068637	0
2	205	120.700505963962	1
2	207	120.764451300593	2
2	208	122.095998644056	1
2	213	123.88207340573	0
2	220	126.848650592969	1
2	221	127.007990984405	0
2	225	127.032744586624	1
2	227	127.281633731822	2
2	228	128.640050772923	1
2	232	129.894700618061	2
2	233	130.331701046201	1
2	236	131.822621325935	0
2	240	132.400087158389	1
2	242	132.698595995336	2
2	245	133.039916282492	1
2	251	133.866587060554	2
2	252	134.906435123431	1
2	256	135.053499399373	2
2	257	136.781400713856	1
2	261	137.543620966545	2
2	263	137.733928525494	3
2	264	138.610803230638	2
2	268	139.869709227095	3
2	269	140.552179780202	2
2	272	141.94110111312	1
2	275	143.526269067796	0
2	279	143.746670367683	1
2	281	144.754142165892	2
2	282	145.468195956172	1
2	286	145.925911722613	2
2	288	146.558202411771	3
2	289	146.819416559273	2
2	293	147.099397967345	3
2	295	148.450078756659	4
2	296	148.728054233612	3
2	300	149.553679976975	4
2	302	149.976972817436	5
2	304	150.183129304336	6
2	305	150.224939179951	5
2	309	150.392040944827	6
2	310	151.760166412377	5
2	313	153.114757674718	4
2	316	154.317098951125	3
2	320	155.018108896506	4
2	322	155.139696949135	5
2	323	156.218533236505	4
2	326	158.004932209262	3
2	330	159.594400623037	4
2	331	159.802928060078	3
2	334	161.393464934052	2
2	338	161.398964979669	3
2	339	162.640569006995	2
2	342	163.956938868918	1
2	346	163.965376148891	2
2	347	165.403974520572	1
2	351	165.960597321209	2
2	354	167.239513173111	1
2	358	167.931748400843	2
2	359	169.184864390053	1
2	363	169.317117392857	2
2	365	169.670104940738	3
2	367	170.973854511879	4
2	368	171.138933074445	3
2	371	172.522850594454	2
2	375	173.095628055478	3
2	376	173.752339839906	2
2	379	175.019845772505	1
2	383	175.919795824228	2
2	384	176.232622793287	1
2	388	176.539692160119	2
2	389	177.459724887058	1
2	392	178.673099016182	0
2	396	179.825965286238	1
2	397	180.590452500217	0
2	401	181.175635867088	1
2	403	181.363567836506	2
2	405	181.566192306734	3
2	406	182.143525063217	2
2	409	183.926140611962	1
2	412	185.131199764059	0
2	416	185.750978464624	1
2	417	186.410661972658	0
2	421	186.899894411561	1
2	422	188.35937703994	0
2	428	189.502517510611	1
2	429	189.887085431226	0
2	433	190.114571033438	1
2	435	191.056400320082	2
2	436	191.827732307807	1
2	440	192.840814697107	2
2	441	193.469273456529	1
2	444	194.78061889612	0
2	448	196.037970409981	1
2	449	196.564262567059	0
2	453	198.052845491833	1
2	455	198.064939261738	2
2	457	198.523973526815	3
2	458	198.55690002066	2
2	462	199.392412375395	3
2	463	199.980285572977	2
2	467	201.155658380966	3
2	468	201.361870388472	2
2	471	203.191256236257	1
2	475	203.631612780535	2
2	476	204.941833252804	1
2	480	205.10426710162	2
2	482	205.927410919356	3
2	483	206.387766542816	2
2	486	207.823472589598	1
2	489	209.557962390938	0
2	493	210.15912032875	1
2	494	210.969370798365	0
2	498	212.495858753196	1
2	499	212.87103312143	0
2	503	214.262701274873	1
2	504	214.295443121873	0
2	511	216.569780086744	1
2	512	216.837704049207	0
2	518	218.208466956488	1
2	519	218.722651063993	0
2	523	219.135871790968	1
2	524	220.246821915328	0
2	528	220.553981686005	1
2	530	220.577251064496	2
2	532	220.807886714107	3
2	534	221.334223422537	4
2	535	222.211465592093	3
2	538	223.677461723394	2
2	541	225.082905661284	1
2	544	226.532669688544	0
2	548	227.649281979252	1
2	549	227.827426104217	0
2	553	228.242111897373	1
2	555	228.675169109628	2
2	556	229.051245302676	1
2	560	229.376709516189	2
2	562	229.543200013904	3
2	564	230.096619197195	4
2	566	230.201327402011	5
2	567	230.882807309336	4
2	571	230.897175826276	5
2	572	232.324701189964	4
2	576	232.944015479098	5
2	578	233.20702789766	6
2	579	234.184557929418	5
2	582	235.451678235426	4
2	585	237.143967847309	3
2	589	237.516788278666	4
2	590	238.500152773752	3
2	594	239.389038054428	4
2	595	239.966917877614	3
2	598	241.355220333829	2
2	601	242.879827704995	1
2	605	243.513081561826	2
2	607	243.880349149037	3
2	609	243.943231984129	4
2	610	244.857190361961	3
2	614	245.32733119929	4
2	615	246.744167041748	3
2	619	247.32424548757	4
2	620	248.314446848228	3
2	624	249.088680462062	4
2	625	249.730739233612	3
2	629	249.914850677401	4
2	630	251.131938006512	3
2	633	252.519711645662	2
2	637	253.918373839093	3
2	638	254.170234229758	2
2	641	255.39055559092	1
2	645	255.64247068061	2
2	646	256.699639742233	1
2	649	258.197106711164	0
2	653	259.790388199285	1
2	655	260.075857285137	2
2	657	260.158327627594	3
2	658	260.160481986187	2
2	662	260.318318610275	3
2	665	261.432955875031	2
2	669	261.600417027814	3
2	671	262.085555791209	4
2	672	263.373103978454	3
2	675	265.180692891373	2
2	679	265.485583956769	3
2	681	267.002975150229	4
2	683	267.151336048513	5
2	684	267.161417117684	4
2	687	268.710353921509	3
2	690	270.500042621947	2
2	694	271.624847389633	3
2	695	272.227958009361	2
2	699	272.965287539228	3
2	700	273.777576788484	2
2	704	274.084054831317	3
2	707	275.611177251643	2
2	710	276.909408650889	1
2	714	278.141151031146	2
2	715	278.294892812117	1
2	719	278.887071566071	2
2	721	279.259872673516	3
2	722	279.544946336715	2
2	726	279.746882804198	3
2	728	280.009957981132	4
2	730	280.222303779623	5
2	731	281.108009727641	4
2	734	282.761904901608	3
2	738	283.958150074061	4
2	740	284.210874315576	5
2	741	284.470812112994	4
2	745	284.95195557438	5
2	746	285.736978201724	4
2	750	285.975305184658	5
2	751	287.69831307546	4
2	754	289.428543687954	3
2	758	289.969222117952	4
2	761	290.966668423235	3
2	765	292.195494424725	4
2	766	292.6725008547	3
2	770	293.744566595241	4
2	771	294.583462920941	3
2	775	295.174778379507	4
2	777	295.262110201892	5
2	778	296.242089804232	4
2	782	296.276370127084	5
2	783	297.917408312268	4
2	787	298.482024355292	5
2	789	298.683236140337	6
2	792	299.632055133737	5
2	796	300.363064020089	6
2	797	301.172869336947	5
2	800	302.527681308395	4
2	804	302.557866161134	5
2	805	304.20488392987	4
2	810	305.761169565066	3
2	814	306.568502896234	4
2	815	307.120414086215	3
2	819	307.925219343428	4
2	820	308.375589633517	3
2	824	309.466589486487	4
2	825	309.630257335275	3
2	829	310.244895144397	4
2	830	310.833355445385	3
2	834	311.130823065601	4
2	835	312.22941296377	3
2	839	312.605582872224	4
2	840	313.891303920716	3
2	844	314.629027849752	4
2	846	315.015135932892	5
2	847	315.792729126073	4
2	850	317.385478054329	3
2	853	319.177990144274	2
2	857	320.162467831185	3
2	858	320.530094144835	2
2	861	321.895664564117	1
2	865	321.955991613546	2
2	867	322.942752609259	3
2	868	323.768508006974	2
2	873	325.489349248043	1
2	876	327.461692126064	0
2	880	327.801535197662	1
2	881	329.114876153475	0
2	888	331.133728592042	1
2	889	332.312070173366	0
2	901	335.69742164423	1
2	903	335.927403177482	2
2	904	336.896956289528	1
2	909	338.386541982895	0
2	913	339.187665125294	1
2	914	340.370892012833	0
2	918	341.877259802066	1
2	919	342.149878019808	0
2	923	342.703885875055	1
2	924	343.866236697665	0
2	928	344.254406378026	1
2	929	345.824682943306	0
2	936	347.526124796056	1
2	937	348.597021320246	0
2	943	348.65928183968	1
2	945	349.744743738987	2
2	946	349.892606853477	1
2	950	350.513548540411	2
2	952	350.593796142332	3
2	953	351.351608419574	2
2	957	353.071179368528	3
2	958	353.278666407957	2
2	961	354.500346729874	1
2	965	354.97027487408	2
2	967	355.881781699334	3
2	968	356.15057362017	2
2	971	357.646763456769	1
2	975	358.276771634238	2
2	977	358.679791453399	3
2	978	359.176296524487	2
2	981	360.486318801499	1
2	984	361.811993575438	0
2	994	365.188415868791	1
2	995	365.641165382571	0
2	999	366.690852298635	1
2	1002	367.228809264644	0
2	1014	370.81906857817	1
2	1015	372.35767056939	0
2	1019	373.31078199393	1
2	1023	373.624903052893	2
2	1024	373.68727395606	1
2	1027	375.21453881298	0
2	1042	380.56972881836	1
2	1044	381.152227362489	2
2	1045	381.447464171954	1
2	1049	381.626357292883	2
2	1051	381.629428896571	3
2	1053	381.709385223524	4
2	1056	382.875712920882	3
2	1060	383.994082434004	4
2	1061	384.712443165451	3
2	1065	384.71353684472	4
2	1066	386.474947067879	3
2	1069	387.793128674634	2
2	1075	388.794582417317	3
2	1076	389.042431947187	2
2	1080	389.702123234354	3
2	1081	390.843178692617	2
2	1085	391.036070450965	3
2	1086	392.102364647918	2
2	1089	393.686114905373	1
2	1092	394.977581739955	0
2	1096	394.990593570651	1
2	1097	396.697020579286	0
2	1104	398.655105854679	1
2	1106	398.717048881394	2
2	1107	399.899831680178	1
2	1110	401.782370424985	0
2	1114	402.747279429421	1
2	1115	403.406637474678	0
2	1121	404.092449984003	1
2	1122	405.008681090705	0
2	1129	407.237207370052	1
2	1130	407.993868416704	0
2	1136	409.000457673212	1
2	1137	409.773386020556	0
2	1141	410.42756108034	1
2	1143	411.200335031452	2
2	1144	411.550405320495	1
2	1148	412.251835908796	2
2	1149	413.143903932504	1
2	1153	414.331735378698	2
2	1154	415.08239459411	1
2	1157	416.656329282157	0
2	1161	417.400881005564	1
2	1162	418.364242183201	0
2	1166	419.034937959833	1
2	1167	419.917409799591	0
2	1171	420.962770020664	1
2	1172	421.815316985891	0
2	1176	423.135313046253	1
2	1177	423.276446405397	0
2	1184	425.123727666717	1
2	1187	425.972901562573	0
2	1193	427.440584989407	1
2	1194	427.575033950219	0
2	1198	427.806204813838	1
2	1200	427.88551738852	2
2	1202	428.957836376536	3
2	1203	429.27602397983	2
2	1206	430.922564405548	1
2	1211	432.840057233507	0
2	1215	433.828843408844	1
2	1216	434.252373205843	0
2	1223	436.094106826635	1
2	1225	436.317366292815	2
2	1226	438.006357977698	1
2	1229	439.465895247804	0
2	1233	439.482685383507	1
2	1236	441.117780932011	0
2	1240	441.295387920365	1
2	1241	443.08712060635	0
2	1245	443.989025967996	1
2	1246	444.780018196972	0
2	1250	444.924470896503	1
2	1251	446.066325575458	0
2	1255	447.086900215575	1
2	1256	447.725351074496	0
2	1260	448.103574629143	1
2	1261	449.592644947553	0
2	1265	450.77891665767	1
2	1267	451.407584579845	2
2	1268	451.524854359003	1
2	1272	451.864575576727	2
2	1273	452.875008532377	1
2	1277	453.441522513819	2
2	1279	453.845500437467	3
2	1281	454.618853546433	4
2	1282	454.78673320354	3
2	1285	456.338312553587	2
2	1289	457.354440184945	3
2	1290	457.722525495822	2
2	1293	459.152734103585	1
2	1297	459.662894599961	2
2	1298	461.039709199937	1
2	1302	461.468392580757	2
2	1303	462.457143931808	1
2	1307	463.070256900471	2
2	1309	463.092353660013	3
2	1310	464.247129272455	2
2	1314	464.662702128195	3
2	1315	465.592789277592	2
2	1318	467.404514460237	1
2	1322	467.535650708071	2
2	1323	468.752727484116	1
2	1327	468.818911160619	2
2	1328	470.018986306684	1
2	1331	471.606256711082	0
2	1338	474.663207004912	1
2	1339	474.757421841258	0
2	1346	477.259058100496	1
2	1350	477.693724912649	2
2	1351	478.013114225277	1
2	1354	479.726590158948	0
2	1358	481.445906656334	1
2	1359	481.617134430976	0
2	1363	481.664732062455	1
2	1364	482.92032145855	0
2	1368	483.876435917163	1
2	1369	484.303300482007	0
2	1376	486.362797404105	1
2	1378	486.95989156476	2
2	1379	487.27571587746	1
2	1382	489.08161698875	0
2	1388	489.946094798018	1
2	1389	490.902011043178	0
2	1393	490.972852535707	1
2	1394	492.242821828993	0
2	1398	492.677345210722	1
2	1399	493.990764906229	0
2	1409	497.049019274546	1
2	1411	498.282594002025	2
2	1412	498.625483472804	1
2	1417	499.895347405197	0
2	1424	501.963268409676	1
2	1425	503.586605374487	0
2	1437	506.58548428168	1
2	1440	507.863794407407	0
2	1460	512.371720360956	1
2	1461	512.931586921001	0
2	1465	513.732181674844	1
2	1468	514.517265199842	0
2	1480	517.790874149842	1
2	1481	518.504960050406	0
2	1490	520.824412164318	1
2	1491	521.605648761959	0
2	1495	522.728868397168	1
2	1496	523.213462920645	0
2	1500	523.355942333962	1
2	1501	524.504726758944	0
2	1513	528.226077403451	1
2	1515	528.462479382404	2
2	1520	530.009336295323	1
2	1523	531.835208173999	0
2	1530	534.528540007307	1
2	1531	534.780791665026	0
2	1559	545.511789636453	1
2	1560	545.835584298679	0
2	1574	550.362303703641	1
2	1575	550.628575546451	0
2	1641	572.820165248702	1
2	1643	573.249768350755	2
2	1644	574.247085848237	1
2	1649	575.996509247432	0
2	1656	578.184633946113	1
2	1657	579.625503692563	0
2	1668	581.356998551774	1
2	1671	582.572273238163	0
2	1775	628.212016018896	1
2	1776	628.872150731589	0
2	1780	628.925249779668	1
2	1787	630.100444936696	0
2	1791	631.293027207331	1
2	1792	631.879798858184	0
2	1799	633.701794197155	1
2	1802	635.514798362683	0
2	1811	636.88008476498	1
2	1812	638.000765895414	0
2	1816	638.239857503779	1
2	1817	639.785449117365	0
2	1821	640.03501157604	1
2	1822	641.472859957943	0
2	1826	641.653833512267	1
2	1829	643.160796891654	0
2	1833	643.51353749408	1
2	1834	644.900659311878	0
2	1842	645.912305523749	1
2	1843	646.225917450281	0
2	1850	647.761144803143	1
2	1851	649.093662417063	0
2	1858	652.189749465024	1
2	1859	652.672967038804	0
2	1866	654.833430294715	1
2	1869	655.927945738041	0
2	1873	657.021083504441	1
2	1875	657.534510689552	2
2	1877	657.667628779224	3
2	1878	657.857015255966	2
2	1882	658.022322710609	3
2	1885	659.113605644868	2
2	1889	659.239965054897	3
2	1890	660.352525235095	2
2	1894	660.789480344849	3
2	1896	660.895379051125	4
2	1898	661.556614164332	5
2	1899	662.316606330254	4
2	1903	662.852457579916	5
2	1905	663.249280767036	6
2	1906	663.803088573121	5
2	1910	664.109670849915	6
2	1912	664.957541315776	7
2	1914	665.390355181899	8
2	1915	665.579318068676	7
2	1919	666.222802132966	8
2	1920	667.469715790578	7
2	1924	667.515091188857	8
2	1925	669.103196955413	7
2	1929	669.21035941669	8
2	1931	669.299246168222	9
2	1932	670.525034950242	8
2	1936	671.032938468837	9
2	1937	672.064078187138	8
2	1940	673.380967554577	7
2	1943	675.307129714951	6
2	1947	675.388353550957	7
2	1949	676.041099751425	8
2	1950	677.301920794822	7
2	1954	677.536311934139	8
2	1955	678.62557951355	7
2	1959	679.002516035249	8
2	1960	680.50789505256	7
2	1964	680.695617778021	8
2	1965	682.226369348295	7
2	1969	682.261909463742	8
2	1970	683.444808078498	7
2	1974	684.857988096493	8
2	1975	685.072007703349	7
2	1979	685.599233233728	8
2	1981	686.404164568374	9
2	1983	686.45115105791	10
2	1984	686.49075281316	9
2	1988	686.672767203626	10
2	1989	687.858937802665	9
2	1993	688.716933337657	10
2	1994	689.626520170398	9
2	1998	689.692647673074	10
2	1999	691.392577394411	9
2	2003	692.438915849722	10
2	2005	692.741888146064	11
2	2006	692.888644145183	10
2	2010	694.107044316851	11
2	2011	694.694742335878	10
2	2015	694.781646504757	11
2	2016	696.442468394652	10
2	2021	698.045003449671	9
2	2025	698.091358124531	10
2	2027	698.955646910821	11
2	2028	699.782961201608	10
2	2031	701.365128580421	9
2	2034	703.046794326544	8
2	2038	703.605998671992	9
2	2040	704.712102274248	10
2	2041	704.799750845075	9
2	2045	705.222302406277	10
2	2047	705.579576660521	11
2	2048	706.038869304896	10
2	2052	706.247664124486	11
2	2053	707.846165353001	10
2	2057	709.577969435384	11
2	2058	709.749206848943	10
2	2063	711.619318872073	9
2	2067	711.629483670246	10
2	2069	711.987557832023	11
2	2071	712.560185459349	12
2	2072	713.544151908846	11
2	2076	714.098777123934	12
2	2078	714.683989156508	13
2	2079	715.010766687745	12
2	2082	716.355026874261	11
2	2086	716.628449625928	12
2	2087	718.138604030514	11
2	2091	719.393942667313	12
2	2092	719.908647301735	11
2	2096	720.055909966568	12
2	2098	720.863822443942	13
2	2099	721.58836128352	12
2	2102	723.179929689446	11
2	2106	724.348709521517	12
2	2108	724.799532887889	13
2	2109	725.067003442661	12
2	2113	726.137541806177	13
2	2115	726.464450999747	14
2	2116	726.783879076445	13
2	2119	728.531073940301	12
2	2123	729.467086224767	13
2	2124	729.770037664601	12
2	2128	731.099434888307	13
2	2129	731.544298817904	12
2	2133	732.549542781142	13
2	2135	733.261222737904	14
2	2136	733.327781858982	13
2	2139	735.149276843609	12
2	2143	735.469242730646	13
2	2145	735.543295256137	14
2	2147	735.662912462641	15
2	2148	736.830655781122	14
2	2152	736.959477050702	15
2	2153	738.375956955494	14
2	2156	740.094233585091	13
2	2160	740.783275872021	14
2	2162	740.927479506365	15
2	2164	740.97164473711	16
2	2166	741.204715074593	17
2	2167	742.075959891209	16
2	2170	743.471478695551	15
2	2173	745.243921744952	14
2	2177	745.666103223406	15
2	2179	746.665512103716	16
2	2180	746.94142528096	15
2	2184	748.011154812838	16
2	2185	748.929146934429	15
2	2189	749.381124900102	16
2	2191	750.344618285074	17
2	2192	750.674892168248	16
2	2196	751.194664659508	17
2	2197	752.464692309068	16
2	2201	753.092565032037	17
2	2202	754.106043775321	16
2	2205	755.88519841464	15
2	2209	756.247970315336	16
2	2211	756.821965925233	17
2	2212	757.639022018702	16
2	2216	758.289146919478	17
2	2218	758.526705876755	18
2	2219	759.253881952667	17
2	2222	761.04787619313	16
2	2226	762.132141011075	17
2	2227	762.341110283451	16
2	2230	763.956470971497	15
2	2234	765.469061795058	16
2	2235	765.597630991729	15
2	2239	766.548054529546	16
2	2241	766.590347375911	17
2	2242	767.224199603813	16
2	2246	768.57960928327	17
2	2248	768.688195198123	18
2	2249	769.163165766316	17
2	2253	769.612463628107	18
2	2254	770.554593720602	17
2	2257	772.149213634187	16
2	2260	773.880629681738	15
2	2264	773.986010052216	16
2	2266	774.552517657153	17
2	2268	775.133397577022	18
2	2270	775.171894870911	19
2	2271	775.372333164455	18
2	2275	775.921023137944	19
2	2277	776.070563541563	20
2	2278	777.370400227176	19
2	2281	778.834897636378	18
2	2285	779.011437191855	19
2	2286	780.655766739452	18
2	2289	782.143047423044	17
2	2292	783.694055619033	16
2	2296	783.748778985173	17
2	2297	784.9519515389	16
2	2300	786.502516789118	15
2	2303	788.471256705316	14
2	2307	789.648407003604	15
2	2308	790.3115209035	14
2	2312	790.34666838609	15
2	2313	791.809835009406	14
2	2319	792.493224184935	15
2	2320	793.156064717787	14
2	2323	794.468130440953	13
2	2327	795.914675456802	14
2	2328	796.262580242882	13
2	2332	797.134234273977	14
2	2334	797.149603224402	15
2	2335	797.789034815262	14
2	2340	799.378117444123	13
2	2344	799.489042937721	14
2	2346	800.195445094219	15
2	2348	800.945615029297	16
2	2350	800.978808629326	17
2	2351	801.375206756162	16
2	2355	803.189348449033	17
2	2356	803.308270629438	16
2	2360	804.488386222649	17
2	2361	805.05769059969	16
2	2365	805.614959998391	17
2	2366	806.84380241217	16
2	2370	807.218248823915	17
2	2372	808.570171061154	18
2	2373	808.659710551555	17
2	2377	809.413011649817	18
2	2378	810.391651385407	17
2	2382	811.757761733508	18
2	2383	811.997323944177	17
2	2387	812.076089602961	18
2	2388	813.726838988568	17
2	2392	813.854170935493	18
2	2393	815.065677775014	17
2	2396	816.430219485741	16
2	2399	818.229829984847	15
2	2403	819.354253278777	16
2	2404	819.498086770754	15
2	2408	819.676787857919	16
2	2411	820.777831639107	15
2	2414	822.2272787874	14
2	2418	822.676053602321	15
2	2419	823.591545759458	14
2	2423	824.557445281564	15
2	2424	825.453301655445	14
2	2430	826.239250119821	15
2	2432	826.383428025547	16
2	2433	826.711349688601	15
2	2437	826.714879112256	16
2	2439	827.968254696709	17
2	2440	828.681489323583	16
2	2446	829.425966212127	17
2	2447	830.059833688234	16
2	2451	831.161576892723	17
2	2453	831.195079536255	18
2	2454	832.004282829856	17
2	2460	833.45463998589	18
2	2461	833.861423130279	17
2	2465	834.787543705527	18
2	2466	835.102315843423	17
2	2469	836.338725803179	16
2	2473	836.404993049503	17
2	2476	837.993962276672	16
2	2480	838.532232557868	17
2	2482	838.792508798646	18
2	2483	839.949032312949	17
2	2488	841.769272287507	16
2	2492	842.184222586552	17
2	2494	842.828868727113	18
2	2495	843.059749127683	17
2	2498	844.834654184189	16
2	2502	844.870759140728	17
2	2503	846.612837834228	16
2	2507	846.789055065467	17
2	2508	848.032682209779	16
2	2512	848.33464586498	17
2	2514	848.75384087281	18
2	2515	849.51827307785	17
2	2519	849.676076832113	18
2	2521	849.725084287598	19
2	2522	851.327393560801	18
2	2525	853.039676746298	17
2	2529	853.580143577255	18
2	2531	853.691790445122	19
2	2532	854.985196447876	18
2	2536	855.590094097209	19
2	2537	856.614518886563	18
2	2541	857.061564018392	19
2	2543	858.409248272872	20
2	2544	858.48031739587	19
2	2547	859.887708239016	18
2	2551	859.963644431194	19
2	2553	861.378565446972	20
2	2554	861.606528164205	19
2	2558	861.770289814483	20
2	2560	861.850851269059	21
2	2561	863.583870572169	20
2	2565	864.025180604249	21
2	2568	865.460195911062	20
2	2572	867.168028110141	21
2	2573	867.370507333	20
2	2576	869.343783070464	19
2	2580	870.445479533959	20
2	2581	870.734086405058	19
2	2585	871.403282421536	20
2	2586	872.43663376825	19
2	2590	873.362500159007	20
2	2591	873.960074422081	19
2	2594	875.573958947641	18
2	2598	876.398794765551	19
2	2600	876.638788665222	20
2	2602	877.352575643277	21
2	2603	877.529990463835	20
2	2607	877.594440174468	21
2	2608	878.942544506063	20
2	2612	879.178838367385	21
2	2613	880.163971175571	20
2	2616	881.898122258988	19
2	2619	883.692776777913	18
2	2623	884.875905576019	19
2	2624	885.266613721234	18
2	2628	885.361146217585	19
2	2630	886.386759789842	20
2	2631	887.047421725412	19
2	2635	887.390715566424	20
2	2637	887.437392042056	21
2	2638	888.611441419219	20
2	2641	890.033178144639	19
2	2645	890.396382390855	20
2	2647	890.7651088045	21
2	2648	891.617019721066	20
2	2652	892.980264055723	21
2	2653	893.600784945247	20
2	2656	895.288154734244	19
2	2660	895.421919993746	20
2	2661	896.906153430176	19
2	2664	898.460509014447	18
2	2667	900.231627859865	17
2	2670	901.899446288255	16
2	2673	903.474619760309	15
2	2677	904.233722256929	16
2	2678	904.676024810169	15
2	2682	905.097685832085	16
2	2683	906.262569971886	15
2	2686	907.79597091781	14
2	2690	907.852101273373	15
2	2691	909.208459143285	14
2	2695	909.317356492567	15
2	2697	910.108536395428	16
2	2698	910.983213615921	15
2	2702	911.415443765202	16
2	2704	911.855618077692	17
2	2706	912.62135250837	18
2	2707	912.653567149062	17
2	2711	914.130033831936	18
2	2712	914.236654351782	17
2	2716	914.688257485985	18
2	2717	915.728663398828	17
2	2720	916.945442528221	16
2	2724	917.246589059083	17
2	2726	918.140412703165	18
2	2727	918.497200563493	17
2	2730	920.313455020766	16
2	2734	920.739294630481	17
2	2735	921.938096461202	16
2	2738	923.761572574954	15
2	2742	924.133780529478	16
2	2743	925.335160205643	15
2	2746	926.808755570966	14
2	2750	926.942999645282	15
2	2752	927.118441464575	16
2	2753	928.367389542925	15
2	2756	929.748251794222	14
2	2760	929.883150503177	15
2	2761	931.359965222272	14
2	2765	932.383705602198	15
2	2766	932.945593374538	14
2	2770	934.243638145985	15
2	2772	934.391277375381	16
2	2773	934.441385098676	15
2	2776	936.300618654805	14
2	2780	937.439542242985	15
2	2781	938.005486277248	14
2	2785	939.182290871225	15
2	2787	939.71769072527	16
2	2788	939.838863164875	15
2	2792	940.002591855859	16
2	2793	941.705433225389	15
2	2797	941.904718744429	16
2	2799	943.311267989769	17
2	2800	943.415259220581	16
2	2803	945.268737046923	15
2	2806	947.201798788774	14
2	2810	947.959307634217	15
2	2811	948.41024249358	14
2	2815	949.539530164041	15
2	2816	950.0649860402	14
2	2819	951.953198935407	13
2	2822	953.526665361541	12
2	2826	954.160228060904	13
2	2827	954.737394178788	12
2	2831	954.81422077145	13
2	2833	955.844347496015	14
2	2834	956.58706934465	13
2	2838	958.14522022728	14
2	2839	958.527348006832	13
2	2843	958.950603983503	14
2	2844	959.938378656226	13
2	2848	960.723818319372	14
2	2849	961.217380595895	13
2	2853	961.479097202153	14
2	2855	961.643469148846	15
2	2856	962.640725721362	14
2	2860	962.666644297956	15
2	2862	963.508382911782	16
2	2863	964.19866642611	15
2	2867	964.500866194936	16
2	2869	965.908614837171	17
2	2870	966.181112210023	16
2	2873	967.989248917381	15
2	2877	968.095892948132	16
2	2878	969.877946031595	15
2	2882	970.365857622878	16
2	2883	971.114854104573	15
2	2886	972.81249139061	14
2	2890	973.176297716212	15
2	2892	973.452713918407	16
2	2893	974.425543795096	15
2	2896	975.686726581248	14
2	2899	976.986970074604	13
2	2903	977.295694251784	14
2	2904	978.724190942327	13
2	2908	979.290964708184	14
2	2909	980.064100049751	13
2	2912	981.773956643919	12
2	2916	981.935281991162	13
2	2917	983.119064621756	12
2	2921	984.447708761346	13
2	2922	984.831697733456	12
2	2927	986.744121762307	11
2	2930	988.147827730083	10
2	2934	988.513617762025	11
2	2936	988.624950118082	12
2	2938	989.561113299259	13
2	2939	989.768121649453	12
2	2943	989.897664872096	13
2	2945	989.946172813958	14
2	2947	991.255964469574	15
2	2948	991.470366957539	14
2	2952	992.278524999199	15
2	2953	993.106368808204	14
2	2957	993.261008221617	15
2	2959	993.404453099106	16
2	2961	994.030134133457	17
2	2962	995.083860560076	16
2	2966	995.934592954601	17
2	2967	996.787129708135	16
2	2971	997.254020895297	17
2	2972	998.263528288843	16
2	2976	998.685067170567	17
2	2977	999.754359168688	16
2	2981	1000.281857096646	17
2	2983	1000.571078564226	18
2	2984	1001.663570615592	17
2	2988	1001.879270078542	18
2	2992	1002.555772392595	19
2	2994	1002.642190260714	20
2	2996	1002.914291379005	21
2	2997	1002.976430584247	20
2	3000	1004.186608854438	19
2	3004	1005.235156102747	20
2	3005	1005.531747009362	19
2	3009	1005.599332254272	20
2	3011	1005.950568880471	21
2	3012	1006.820310827288	20
2	3016	1007.433578495794	21
2	3019	1008.247365920375	20
2	3022	1009.670174795705	19
2	3025	1011.647090431991	18
2	3029	1012.457542297068	19
2	3031	1012.632199756277	20
2	3032	1012.899305842387	19
2	3036	1013.353357254933	20
2	3038	1013.500724820376	21
2	3039	1014.663208234439	20
2	3043	1015.548154747171	21
2	3044	1016.091133972386	20
2	3048	1016.276458673463	21
2	3049	1017.569768891985	20
2	3053	1018.80420511754	21
2	3055	1018.942231740954	22
2	3056	1019.444104432444	21
2	3059	1020.88364374725	20
2	3063	1022.291807007789	21
2	3064	1022.353969521577	20
2	3068	1023.05281296107	21
2	3069	1024.100017661358	20
2	3072	1025.326979268844	19
2	3075	1026.856707466523	18
2	3079	1027.298233861726	19
2	3081	1027.333284024454	20
2	3083	1027.80615222074	21
2	3084	1028.817990052457	20
2	3088	1029.105232842778	21
2	3089	1030.036407251972	20
2	3093	1030.171076565124	21
2	3094	1031.942068952638	20
2	3098	1032.933973266327	21
2	3100	1033.339083670496	22
2	3102	1033.618377193845	23
2	3103	1033.853066454212	22
2	3106	1035.825478529128	21
2	3110	1036.925758630462	22
2	3111	1037.293842123392	21
2	3115	1038.086818484205	22
2	3116	1039.033464343603	21
2	3120	1040.159825616628	22
2	3121	1040.369826322551	21
2	3125	1040.745285703207	22
2	3127	1040.855153624063	23
2	3129	1040.873347140774	24
2	3131	1041.314147666095	25
2	3133	1041.686625081745	26
2	3134	1042.1783161824	25
2	3138	1042.812877269057	26
2	3139	1044.064116469155	25
2	3142	1045.551651573311	24
2	3146	1046.23064019205	25
2	3147	1046.759337284173	24
2	3150	1048.31969931418	23
2	3153	1049.695648504364	22
2	3157	1050.374330605075	23
2	3159	1050.787140005049	24
2	3161	1050.981142391008	25
2	3162	1051.094198137651	24
2	3166	1052.136076772236	25
2	3167	1052.903356337863	24
2	3171	1053.998070281055	25
2	3172	1054.62189558329	24
2	3176	1054.621899485723	25
2	3177	1056.426547575313	24
2	3180	1058.040259843263	23
2	3183	1059.78356078932	22
2	3187	1060.170326423778	23
2	3189	1060.380535003327	24
2	3191	1061.296843419421	25
2	3192	1061.593406851347	24
2	3195	1063.385210833456	23
2	3198	1064.789765314702	22
2	3202	1066.195769189721	23
2	3203	1066.476134624463	22
2	3206	1068.069094155673	21
2	3210	1069.392380096362	22
2	3211	1069.605539342891	21
2	3215	1069.697993584693	22
2	3217	1071.1980391193	23
2	3218	1071.245032839793	22
2	3222	1071.964820585771	23
2	3223	1072.977070880997	22
2	3227	1073.68134268435	23
2	3229	1074.682311598241	24
2	3230	1074.819887588675	23
2	3234	1074.90872063997	24
2	3236	1075.111172445631	25
2	3237	1076.283234850074	24
2	3241	1077.31966067215	25
2	3242	1077.623334752153	24
2	3246	1078.227179561691	25
2	3247	1079.299801751728	24
2	3251	1080.654914687153	25
2	3252	1080.729731667544	24
2	3256	1081.852044699683	25
2	3257	1082.263302215877	24
2	3260	1083.608996314126	23
2	3263	1085.573076890166	22
2	3267	1086.219882667238	23
2	3268	1086.980671460125	22
2	3271	1088.32219642898	21
2	3275	1089.143012194639	22
2	3277	1089.17772184052	23
2	3279	1089.306411086331	24
2	3280	1089.595520278941	23
2	3283	1091.087879687677	22
2	3287	1091.407899890498	23
2	3288	1092.665189951601	22
2	3292	1092.685821938515	23
2	3293	1094.19419614313	22
2	3297	1094.643878814663	23
2	3299	1095.383606200299	24
2	3300	1095.838835057	23
2	3304	1097.28687111669	24
2	3306	1097.427266443263	25
2	3307	1097.556562743092	24
2	3310	1099.446200286726	23
2	3314	1100.297404809523	24
2	3315	1101.246903539578	23
2	3319	1101.755030718049	24
2	3320	1103.00464463936	23
2	3324	1104.35407285268	24
2	3325	1104.917473309057	23
2	3329	1106.512140323913	24
2	3331	1106.602366699168	25
2	3332	1106.906946676167	24
2	3336	1107.201634761804	25
2	3337	1108.29804938169	24
2	3340	1109.942063062394	23
2	3343	1111.917562449852	22
2	3346	1113.570133684704	21
2	3350	1115.114792526394	22
2	3351	1115.418555859791	21
2	3355	1115.896372560316	22
2	3356	1116.691244624684	21
2	3359	1118.27082774354	20
2	3362	1119.58871077759	19
2	3366	1119.973494422478	20
2	3367	1121.161427440809	19
2	3371	1121.540562503259	20
2	3372	1122.428802881518	19
2	3376	1123.77510599151	20
2	3378	1123.816176749436	21
2	3379	1124.155511113012	20
2	3382	1126.043435161503	19
2	3386	1126.478156216772	20
2	3387	1127.294979088882	19
2	3391	1127.91984385933	20
2	3393	1128.701876404345	21
2	3394	1128.707403507957	20
2	3398	1129.450549250072	21
2	3400	1129.918613775192	22
2	3401	1130.563906890096	21
2	3405	1131.25998658417	22
2	3409	1132.210813277511	23
2	3410	1132.276877927163	22
2	3414	1133.07241445635	23
2	3415	1133.608740246424	22
2	3418	1135.362576164992	21
2	3423	1137.23544977078	20
2	3426	1138.745973023528	19
2	3430	1138.765797047015	20
2	3432	1139.873748107422	21
2	3433	1140.569936295355	20
2	3436	1141.824617351907	19
2	3440	1142.09972949954	20
2	3442	1143.703723564721	21
2	3443	1143.718891154918	20
2	3447	1143.746952132353	21
2	3448	1145.454325603823	20
2	3452	1145.820205613177	21
2	3453	1146.72468214197	20
2	3457	1147.517675826262	21
2	3458	1148.524525245781	20
2	3462	1148.909000582595	21
2	3463	1150.473438164162	20
2	3467	1150.539575899261	21
2	3468	1152.334783947783	20
2	3472	1152.922952554493	21
2	3474	1152.966452990029	22
2	3475	1153.964626016969	21
2	3479	1154.324002331661	22
2	3480	1155.33786141997	21
2	3483	1157.000034363882	20
2	3486	1158.775599477941	19
2	3491	1160.589969386102	18
2	3495	1162.411177781507	19
2	3496	1162.578360783064	18
2	3500	1163.332029536216	19
2	3501	1164.346997273655	18
2	3505	1164.391043641709	19
2	3507	1165.319910376121	20
2	3508	1165.772384752834	19
2	3514	1166.860537120694	20
2	3515	1167.229662348645	19
2	3519	1167.35391601186	20
2	3521	1167.429415853932	21
2	3522	1168.709222891683	20
2	3526	1169.18302956866	21
2	3527	1170.566888060363	20
2	3531	1171.466473395237	21
2	3532	1172.560850094201	20
2	3535	1174.161465631368	19
2	3539	1174.632127880383	20
2	3540	1176.083758759255	19
2	3544	1176.643143967363	20
2	3545	1177.923760328571	19
2	3548	1179.438316539804	18
2	3551	1181.220640735085	17
2	3554	1182.5510418245	16
2	3558	1182.842088949202	17
2	3560	1183.707910850496	18
2	3561	1184.530445804763	17
2	3564	1186.370226347017	16
2	3567	1188.323788007292	15
2	3571	1189.398199437735	16
2	3572	1189.542808739225	15
2	3575	1190.793463989849	14
2	3581	1191.998907268412	15
2	3583	1192.057839077609	16
2	3585	1192.175737530771	17
2	3586	1192.412499479706	16
2	3590	1192.453562215591	17
2	3591	1194.011782524864	16
2	3595	1194.973494048498	17
2	3596	1195.885268192681	16
2	3600	1196.97789439929	17
2	3601	1197.497892025428	16
2	3605	1198.212853923552	17
2	3607	1198.798123412239	18
2	3608	1199.485196457373	17
2	3612	1200.759087112788	18
2	3613	1200.963004625158	17
2	3617	1201.661579684493	18
2	3618	1202.410326844396	17
2	3621	1203.867905936705	16
2	3624	1205.126139962988	15
2	3627	1206.466556661332	14
2	3631	1206.966007329189	15
2	3632	1208.326979070658	14
2	3636	1208.472308569799	15
2	3638	1208.71159732634	16
2	3640	1208.797897163934	17
2	3641	1209.579540436098	16
2	3644	1210.970763038413	15
2	3648	1211.362141800689	16
2	3650	1212.768039530139	17
2	3651	1212.926656507084	16
2	3655	1213.207554588558	17
2	3656	1214.884065377096	16
2	3659	1216.089456379915	15
2	3663	1216.272008879081	16
2	3665	1216.738997662559	17
2	3666	1217.627854081745	16
2	3670	1218.892046904794	17
2	3671	1219.399428374449	16
2	3674	1220.908099538217	15
2	3678	1221.481267166738	16
2	3680	1222.216059683142	17
2	3681	1222.404945847335	16
2	3684	1223.636893757748	15
2	3688	1224.103780743109	16
2	3690	1224.376529827662	17
2	3692	1224.55105195117	18
2	3694	1225.183056085934	19
2	3695	1225.319680486003	18
2	3698	1226.974403631629	17
2	3701	1228.40176986655	16
2	3704	1230.075212535577	15
2	3708	1230.950079671344	16
2	3709	1231.407435351925	15
2	3713	1232.572785401401	16
2	3714	1233.079406470934	15
2	3718	1233.35887361285	16
2	3721	1234.890724275017	15
2	3724	1236.38035874808	14
2	3727	1238.02558468798	13
2	3730	1239.444515205862	12
2	3734	1239.863456340516	13
2	3736	1240.659214920568	14
2	3737	1241.418126461783	13
2	3741	1242.584734715107	14
2	3742	1242.749156550632	13
2	3746	1243.511011890065	14
2	3748	1244.100356330127	15
2	3750	1244.289121608818	16
2	3751	1244.459957561397	15
2	3755	1244.702398488014	16
2	3756	1246.331378729955	15
2	3760	1248.078508785157	16
2	3761	1248.304713009798	15
2	3765	1249.180607386202	16
2	3766	1250.1472935052	15
2	3770	1250.675913439428	16
2	3771	1251.354992362798	15
2	3775	1251.49924985507	16
2	3776	1252.555343565845	15
2	3780	1253.99337532013	16
2	3781	1254.358302354195	15
2	3785	1254.758794282284	16
2	3786	1255.952131496125	15
2	3790	1256.18661588285	16
2	3791	1257.923438663163	15
2	3794	1259.31858451286	14
2	3798	1259.439836738361	15
2	3799	1260.886707195394	14
2	3802	1262.387541457579	13
2	3805	1263.695485949457	12
2	3809	1264.11191415292	13
2	3811	1264.385339960594	14
2	3812	1265.059847364143	13
2	3816	1265.434937537365	14
2	3818	1265.489917832026	15
2	3820	1265.589990109955	16
2	3821	1266.32802179841	15
2	3824	1267.603446163923	14
2	3828	1267.996598455248	15
2	3829	1268.866675520629	14
2	3833	1269.475909162929	15
2	3835	1269.526378127236	16
2	3836	1270.776465932966	15
2	3839	1272.001230677531	14
2	3842	1273.388747940899	13
2	3845	1275.166775661648	12
2	3848	1277.082356344663	11
2	3852	1277.695676849283	12
2	3854	1278.032280781355	13
2	3856	1278.382546529499	14
2	3857	1279.073725196101	13
2	3861	1279.633005584487	14
2	3863	1279.759708652175	15
2	3864	1280.404163685382	14
2	3869	1282.039584695675	13
2	3872	1283.725228368059	12
2	3876	1283.741856706476	13
2	3877	1285.164227596984	12
2	3881	1286.376983956646	13
2	3882	1286.457336405978	12
2	3885	1287.946303355821	11
2	3888	1289.915644312405	10
2	3892	1291.720763363477	11
2	3893	1291.795810306945	10
2	3897	1292.652387644839	11
2	3898	1293.343081697018	10
2	3901	1294.823388505482	9
2	3905	1295.565449998525	10
2	3906	1296.473198533372	9
2	3910	1297.448742012907	10
2	3912	1297.501267858577	11
2	3913	1297.811637080216	10
2	3917	1298.269078088161	11
2	3919	1299.014572438843	12
2	3920	1299.736335118615	11
2	3924	1300.093099658638	12
2	3925	1301.607896465191	11
2	3929	1302.335825670913	12
2	3931	1302.44185790514	13
2	3932	1302.920306722948	12
2	3936	1303.8457441378	13
2	3938	1304.310921492159	14
2	3940	1304.321859503771	15
2	3942	1304.483228178442	16
2	3943	1304.491315088177	15
2	3947	1304.886385190255	16
2	3949	1305.574867408366	17
2	3950	1306.033244021924	16
2	3954	1306.140878584113	17
2	3956	1306.590709029181	18
2	3957	1307.80482990382	17
2	3961	1308.2057778131	18
2	3963	1308.225134327807	19
2	3964	1309.440864209772	18
2	3970	1310.29007637305	19
2	3971	1310.644405692012	18
2	3975	1312.229457704742	19
2	3976	1312.282910021336	18
2	3979	1314.05109871322	17
2	3983	1314.705928852932	18
2	3984	1315.870016064622	17
2	3988	1316.054593872847	18
2	3990	1316.347272721721	19
2	3992	1316.595520672314	20
2	3993	1317.618241349921	19
2	3997	1318.472207648407	20
2	3998	1319.592931129538	19
2	4002	1320.390791624458	20
2	4003	1321.331410122604	19
2	4007	1321.593816224218	20
2	4008	1322.998446268343	19
2	4012	1324.375741279691	20
2	4013	1324.449906172544	19
2	4016	1326.348568323381	18
2	4019	1327.722235643618	17
2	4023	1328.676721009047	18
2	4024	1329.12076288344	17
2	4028	1329.249569127621	18
2	4030	1329.494541312238	19
2	4031	1331.017130192496	18
2	4034	1332.388029600434	17
2	4037	1334.365335321367	16
2	4041	1335.039492814637	17
2	4043	1335.64085094579	18
2	4044	1335.753841301367	17
2	4048	1336.05445691402	18
2	4049	1337.356163284682	17
2	4053	1338.66081288538	18
2	4054	1339.266528337203	17
2	4058	1339.954048550399	18
2	4059	1340.849263673402	17
2	4062	1342.255468096524	16
2	4067	1343.641747085131	15
2	4071	1344.9587487394	16
2	4072	1345.154099240839	15
2	4076	1345.208482595415	16
2	4078	1345.842072311188	17
2	4079	1346.925571699753	16
2	4083	1346.951663358458	17
2	4085	1347.577722101932	18
2	4086	1348.642289057687	17
2	4090	1349.81217796647	18
2	4091	1349.96964768482	17
2	4095	1350.110226796674	18
2	4097	1351.58518134184	19
2	4098	1351.90667855417	18
2	4101	1353.368538241774	17
2	4104	1354.834206704177	16
2	4108	1355.506096095302	17
2	4109	1356.348312760457	16
2	4112	1357.858711425528	15
2	4116	1358.217526863873	16
2	4118	1359.242453703172	17
2	4119	1359.369444861017	16
2	4123	1359.742371218394	17
2	4125	1360.185118905204	18
2	4127	1361.048342728376	19
2	4129	1361.154722285359	20
2	4130	1361.22665298929	19
2	4134	1361.928232058581	20
2	4135	1362.803477438479	19
2	4139	1362.840585223852	20
2	4140	1364.370982150673	19
2	4144	1365.476575759461	20
2	4146	1366.092480629644	21
2	4147	1366.301880614213	20
2	4152	1367.564727762654	19
2	4155	1368.823591633267	18
2	4159	1369.174754929475	19
2	4161	1370.541211078863	20
2	4162	1370.638968124925	19
2	4165	1371.978263862557	18
2	4169	1372.054682284747	19
2	4170	1373.261736066952	18
2	4174	1374.217125077098	19
2	4176	1374.330115730747	20
2	4178	1374.57574395307	21
2	4180	1374.817543545051	22
2	4181	1374.868781318269	21
2	4184	1376.200794247291	20
2	4188	1377.220891852279	21
2	4190	1377.266767088884	22
2	4191	1377.926009173444	21
2	4195	1378.313712451744	22
2	4196	1379.325364305204	21
2	4199	1381.142011051005	20
2	4203	1381.244121401813	21
2	4204	1382.893696038923	20
2	4208	1384.137349226626	21
2	4210	1384.364287470315	22
2	4211	1384.754256114489	21
2	4214	1386.561979362121	20
2	4218	1387.309788047234	21
2	4220	1387.857160071352	22
2	4221	1387.915554146035	21
2	4224	1389.158867975077	20
2	4228	1389.170980543129	21
2	4230	1390.723317167643	22
2	4231	1391.157778666107	21
2	4234	1392.393661065524	20
2	4238	1393.600523936363	21
2	4239	1393.788456009639	20
2	4243	1394.503383108215	21
2	4244	1395.146812444491	20
2	4247	1396.970798830067	19
2	4251	1398.195529716012	20
2	4253	1398.356697756167	21
2	4254	1398.497932985922	20
2	4257	1399.951065269237	19
2	4261	1401.438161565883	20
2	4262	1401.471910622654	19
2	4268	1401.97639288176	20
2	4270	1402.555763872563	21
2	4271	1402.791813702633	20
2	4275	1403.424622503461	21
2	4276	1404.40932409366	20
2	4280	1405.269502162232	21
2	4281	1406.107993881901	20
2	4284	1407.49044504681	19
2	4288	1408.22206919838	20
2	4289	1409.14147714184	19
2	4295	1410.184370604533	20
2	4297	1410.363658168941	21
2	4298	1410.575037669142	20
2	4301	1412.039210876388	19
2	4304	1413.298034956431	18
2	4307	1414.663884092806	17
2	4311	1415.513318408995	18
2	4312	1416.14098813658	17
2	4315	1417.463037683381	16
2	4319	1419.053476712834	17
2	4320	1419.242772766141	16
2	4324	1419.259280917514	17
2	4326	1419.366779526179	18
2	4328	1419.88468471477	19
2	4329	1420.55609208898	18
2	4333	1421.136721676137	19
2	4335	1421.710226123274	20
2	4336	1422.238298744274	19
2	4339	1423.883461949167	18
2	4343	1424.317627145622	19
2	4345	1424.920994891127	20
2	4346	1425.80312357073	19
2	4350	1426.843262359931	20
2	4351	1427.036534165901	19
2	4355	1427.040983962546	20
2	4356	1428.667902618957	19
2	4360	1428.950031814234	20
2	4362	1429.298616715021	21
2	4363	1430.157366531094	20
2	4367	1431.49743179439	21
2	4368	1431.791319566158	20
2	4371	1433.229370729004	19
2	4375	1433.452944631555	20
2	4376	1434.859873499659	19
2	4379	1436.060665501778	18
2	4383	1436.297785354811	19
2	4384	1437.428491147173	18
2	4388	1439.068044236836	19
2	4389	1439.081760019002	18
2	4393	1439.247678707959	19
2	4395	1440.144230494284	20
2	4396	1440.687142321033	19
2	4399	1442.358679392499	18
2	4403	1442.603682017698	19
2	4405	1443.268799077735	20
2	4406	1443.575108268795	19
2	4410	1444.661283373852	20
2	4411	1444.935645305117	19
2	4415	1445.837730114488	20
2	4416	1446.640441047338	19
2	4420	1447.560614228258	20
2	4422	1447.861910255207	21
2	4423	1448.489682210733	20
2	4427	1449.853989056973	21
2	4428	1449.924863115077	20
2	4432	1450.476860999585	21
2	4434	1451.504792469907	22
2	4435	1451.607409726021	21
2	4439	1451.973252381655	22
2	4441	1453.269879681326	23
2	4442	1453.434275216547	22
2	4446	1453.854057166741	23
2	4448	1454.297163061327	24
2	4449	1455.086442297076	23
2	4453	1455.948559155839	24
2	4454	1456.422625254032	23
2	4458	1456.580408094057	24
2	4459	1458.21678484672	23
2	4463	1458.675210719278	24
2	4464	1460.18434882493	23
2	4468	1460.486059728159	24
2	4470	1460.572998384439	25
2	4471	1462.11734149934	24
2	4475	1462.336713160575	25
2	4477	1462.659486931395	26
2	4478	1463.63900057276	25
2	4482	1464.201784467383	26
2	4483	1465.153342823249	25
2	4487	1465.936757369587	26
2	4489	1466.2459035157	27
2	4490	1466.522221185949	26
2	4494	1467.357038368545	27
2	4495	1467.826433706779	26
2	4499	1467.852737482487	27
2	4501	1468.205347719578	28
2	4502	1469.720544511016	27
2	4506	1470.409608653334	28
2	4507	1471.573851856898	27
2	4511	1472.572670466542	28
2	4512	1473.421714964631	27
2	4516	1474.236947452227	28
2	4517	1474.704455376352	27
2	4521	1475.821653444535	28
2	4522	1476.651523399475	27
2	4526	1476.78067534364	28
2	4527	1478.555735019344	27
2	4531	1479.310212679931	28
2	4532	1480.158966568421	27
2	4536	1480.233353934797	28
2	4537	1481.548054964218	27
2	4540	1482.890768233064	26
2	4544	1484.09031935225	27
2	4545	1484.091568911198	26
2	4548	1485.644314939092	25
2	4552	1487.298411497458	26
2	4553	1487.308325237344	25
2	4557	1487.734720847574	26
2	4558	1488.874310729961	25
2	4561	1490.375498159724	24
2	4565	1490.516658507604	25
2	4566	1492.048231437552	24
2	4570	1492.205591385397	25
2	4572	1492.565224929848	26
2	4573	1493.897460316616	25
2	4577	1494.659377892172	26
2	4579	1495.323961145869	27
2	4581	1495.379930196189	28
2	4582	1495.862964176136	27
2	4586	1496.20629525558	28
2	4587	1497.144052766199	27
2	4591	1497.96765879131	28
2	4592	1498.383763021166	27
2	4596	1498.831913012402	28
2	4598	1500.185296430864	29
2	4599	1500.354236474755	28
2	4602	1501.879482448595	27
2	4605	1503.50064544932	26
2	4609	1505.112892169628	27
2	4610	1505.212231439101	26
2	4614	1506.717779414422	27
2	4615	1507.1160265812	26
2	4619	1508.542140062332	27
2	4620	1508.955970860208	26
2	4624	1509.83314736801	27
2	4625	1510.246136539179	26
2	4628	1511.933581067744	25
2	4631	1513.565792965825	24
2	4634	1514.913159491803	23
2	4638	1515.028574966015	24
2	4640	1516.509141052797	25
2	4641	1516.628616947989	24
2	4645	1516.845861461496	25
2	4647	1517.940819124576	26
2	4648	1518.348449373926	25
2	4652	1519.035652654101	26
2	4654	1519.908996175627	27
2	4655	1519.938287825446	26
2	4659	1520.866007077463	27
2	4660	1521.176380237128	26
2	4663	1522.582642442297	25
2	4666	1524.227540809225	24
2	4670	1524.900749492142	25
2	4672	1525.511605578294	26
2	4673	1525.916639448639	25
2	4677	1526.883633928231	26
2	4678	1527.843225951616	25
2	4682	1528.337470778313	26
2	4683	1529.358838528145	25
2	4686	1530.969957491692	24
2	4690	1531.655713568842	25
2	4694	1532.105395901657	26
2	4695	1532.826465232421	25
2	4699	1533.926645086911	26
2	4700	1534.194746888925	25
2	4703	1535.496794700374	24
2	4707	1535.723647081712	25
2	4709	1536.056285129966	26
2	4710	1536.697493858759	25
2	4713	1538.502586358537	24
2	4717	1538.738500310498	25
2	4718	1539.743309250412	24
2	4721	1541.090451091466	23
2	4725	1541.5728411769	24
2	4727	1541.794695633923	25
2	4728	1542.520472387349	24
2	4732	1543.103831332675	25
2	4733	1543.74684369204	24
2	4737	1544.747841508233	25
2	4738	1545.133332700966	24
2	4742	1546.212053690616	25
2	4743	1546.578784606544	24
2	4747	1547.111466482177	25
2	4748	1547.795093857435	24
2	4752	1548.551068126842	25
2	4757	1549.656855463361	24
2	4761	1551.40646811918	25
2	4762	1551.410126392481	24
2	4766	1551.659143369791	25
2	4768	1552.797941180225	26
2	4769	1552.848125763734	25
2	4773	1553.405154271162	26
2	4774	1554.691167732825	25
2	4778	1555.549525254352	26
2	4779	1555.956145517466	25
2	4783	1556.415834936311	26
2	4785	1557.258755747258	27
2	4786	1557.917332824816	26
2	4790	1558.829033266252	27
2	4791	1559.472486199749	26
2	4795	1560.648011303051	27
2	4796	1561.143039608498	26
2	4800	1561.401131156568	27
2	4802	1562.449078293345	28
2	4803	1562.457649982286	27
2	4806	1563.985627799978	26
2	4809	1565.510636924704	25
2	4812	1566.97350627513	24
2	4816	1567.492058289018	25
2	4818	1567.843479027178	26
2	4819	1568.615540205253	25
2	4823	1569.429663921501	26
2	4825	1570.407316201062	27
2	4826	1570.426944455256	26
2	4829	1571.890941200902	25
2	4833	1572.895534803959	26
2	4834	1573.344944776905	25
2	4838	1573.71736047768	26
2	4840	1574.618290991048	27
2	4842	1575.097921335038	28
2	4843	1575.144135785413	27
2	4847	1575.292399779881	28
2	4848	1576.479402759981	27
2	4852	1576.741632748814	28
2	4853	1577.731960154076	27
2	4857	1579.167447786212	28
2	4858	1579.484050413345	27
2	4862	1579.731829528407	28
2	4863	1581.166325586972	27
2	4867	1581.666731748117	28
2	4869	1581.860306191622	29
2	4870	1583.042677100313	28
2	4876	1584.086672002381	29
2	4877	1584.436544065115	28
2	4880	1585.829549368595	27
2	4884	1585.910189802506	28
2	4885	1587.61419812267	27
2	4889	1588.985861931257	28
2	4890	1589.124544394699	27
2	4894	1589.780950212595	28
2	4896	1589.839714666696	29
2	4897	1590.714569668223	28
2	4901	1590.778204348781	29
2	4902	1592.119263455209	28
2	4906	1592.728683232032	29
2	4907	1593.342902708363	28
2	4911	1593.449492700757	29
2	4912	1594.920601415199	28
2	4916	1595.708306807409	29
2	4918	1596.259937179718	30
2	4919	1596.697133991432	29
2	4922	1598.685870638427	28
2	4925	1600.207856408071	27
2	4928	1601.480987089996	26
2	4932	1601.742159006893	27
2	4933	1603.466997117114	26
2	4937	1604.783248615719	27
2	4938	1605.217507545401	26
2	4942	1606.395946655373	27
2	4943	1606.459569048819	26
2	4947	1606.85650957039	27
2	4948	1607.715511638609	26
2	4952	1608.094188416609	27
2	4953	1609.545860362177	26
2	4957	1609.6269418233	27
2	4959	1611.038748892739	28
2	4960	1611.421294189369	27
2	4964	1612.622075615883	28
2	4966	1612.702390301649	29
2	4967	1612.762808480425	28
2	4971	1613.077763875905	29
2	4972	1614.310474625355	28
2	4976	1615.278273716485	29
2	4978	1615.732782990449	30
2	4979	1616.130404164954	29
2	4983	1617.317881328396	30
2	4984	1617.825013407073	29
2	4988	1619.583400414878	30
2	4989	1619.822581127225	29
2	4993	1620.827185408181	30
2	4995	1621.018913196597	31
2	4996	1621.447414387143	30
2	5000	1621.85807746603	31
2	5001	1622.919007609538	30
2	5005	1623.511196972156	31
2	5006	1624.821350908405	30
2	5009	1626.586605350054	29
2	5013	1626.876969950712	30
2	5015	1627.40709639424	31
2	5016	1628.494503512359	30
2	5020	1629.737581020297	31
2	5021	1630.236720802388	30
2	5024	1631.866571482397	29
2	5027	1633.692317083231	28
2	5030	1635.154814825519	27
2	5034	1636.125646966932	28
2	5035	1636.514568980536	27
2	5039	1636.876742570844	28
2	5040	1637.93704690536	27
2	5043	1639.230172046958	26
2	5047	1639.269054850362	27
2	5050	1640.902946468382	26
2	5053	1642.593246519877	25
2	5056	1644.153230530894	24
2	5060	1644.318783633196	25
2	5061	1645.389009447521	24
2	5065	1645.752876094382	25
2	5067	1646.561428318256	26
2	5068	1646.865624153739	25
2	5072	1648.323509380678	26
2	5073	1648.764593965126	25
2	5077	1649.402985448588	26
2	5078	1650.514522920115	25
2	5082	1650.602428499041	26
2	5083	1651.825583264543	25
2	5087	1653.227185993364	26
2	5088	1653.515799587531	25
2	5091	1655.177388583435	24
2	5095	1656.255237250137	25
2	5097	1656.335310778882	26
2	5098	1656.98759352242	25
2	5102	1657.434496852472	26
2	5103	1658.735846415287	25
2	5106	1660.244925316734	24
2	5110	1660.690022306929	25
2	5111	1661.716355033902	24
2	5114	1663.70825411578	23
2	5118	1663.944523616048	24
2	5120	1663.959099783243	25
2	5121	1664.999862708089	24
2	5124	1666.616864417245	23
2	5127	1668.227618842696	22
2	5131	1669.086515535557	23
2	5132	1669.841828528171	22
2	5136	1669.856124012671	23
2	5138	1670.86581355702	24
2	5140	1670.890050460644	25
2	5141	1671.693577321929	24
2	5145	1671.999163337234	25
2	5147	1672.004721697445	26
2	5148	1673.394519580093	25
2	5152	1674.167591672896	26
2	5153	1675.112752303791	25
2	5156	1676.619065670979	24
2	5160	1677.331509127796	25
2	5161	1678.529886670534	24
2	5164	1679.865137330007	23
2	5168	1680.10452351938	24
2	5169	1681.575337092515	23
2	5173	1681.904630243484	24
2	5174	1683.54913038959	23
2	5177	1684.758645458456	22
2	5181	1684.917338010535	23
2	5182	1686.652244180191	22
2	5186	1686.802468795331	23
2	5188	1687.061884448336	24
2	5190	1688.22623391619	25
2	5192	1688.25871956835	26
2	5193	1688.416058344889	25
2	5197	1688.782185903451	26
2	5198	1689.883635689068	25
2	5202	1690.843041676445	26
2	5203	1691.141949640337	25
2	5207	1692.29452572792	26
2	5208	1692.57969907106	25
2	5212	1692.816320535673	26
2	5216	1694.002161939889	27
2	5217	1694.017267631303	26
2	5220	1695.720334232907	25
2	5224	1696.746297641021	26
2	5226	1697.261668688192	27
2	5227	1697.32353069068	26
2	5230	1699.011028883542	25
2	5233	1700.373581113602	24
2	5236	1702.124645247805	23
2	5240	1702.523718825029	24
2	5242	1703.10576000144	25
2	5244	1703.262040089354	26
2	5246	1703.375507876802	27
2	5247	1703.609868536639	26
2	5251	1705.108911374177	27
2	5252	1705.277903767611	26
2	5255	1706.521845269512	25
2	5259	1707.027398452996	26
2	5260	1708.331145683053	25
2	5263	1709.846223763871	24
2	5267	1709.92499272464	25
2	5268	1711.833628891344	24
2	5272	1713.288266268187	25
2	5273	1713.495173606212	24
2	5277	1713.559909387819	25
2	5278	1715.063483357924	24
2	5282	1715.576113811228	25
2	5283	1716.816153210896	24
2	5287	1718.499772119155	25
2	5288	1718.793591433885	24
2	5292	1718.876911509606	25
2	5293	1720.650135077658	24
2	5297	1721.381818930645	25
2	5298	1722.159956098656	24
2	5301	1723.733206612366	23
2	5305	1725.012832976144	24
2	5306	1725.322288024361	23
2	5309	1727.131730626645	22
2	5313	1727.782418608308	23
2	5316	1728.537571485835	22
2	5320	1729.629372059865	23
2	5321	1729.969110236811	22
2	5324	1731.33232417957	21
2	5328	1731.407266216883	22
2	5329	1733.163094298663	21
2	5333	1733.97198438173	22
2	5335	1734.024671889288	23
2	5336	1734.602732198621	22
2	5340	1734.613052910559	23
2	5341	1735.969478119287	22
2	5344	1737.692248771834	21
2	5348	1737.738111793686	22
2	5350	1738.224798798864	23
2	5351	1738.893990696343	22
2	5354	1740.165214773389	21
2	5358	1740.812742179413	22
2	5359	1741.866983518126	21
2	5363	1741.874071615048	22
2	5365	1742.837169280738	23
2	5367	1742.973815254078	24
2	5368	1743.165299857343	23
2	5371	1745.15399903127	22
2	5375	1745.660278694365	23
2	5376	1746.833818999054	22
2	5379	1748.29437669714	21
2	5383	1748.90810608143	22
2	5384	1749.821387512358	21
2	5387	1751.470350731099	20
2	5391	1751.492273547255	21
2	5393	1751.972427947638	22
2	5394	1752.695830822485	21
2	5398	1753.90187725862	22
2	5399	1754.253284956264	21
2	5403	1755.635691337211	22
2	5404	1755.985111341747	21
2	5408	1756.176805660668	22
2	5409	1757.520619612122	21
2	5412	1759.353148728171	20
2	5416	1760.317306727616	21
2	5418	1760.328667323531	22
2	5419	1760.746637437055	21
2	5423	1761.280203433445	22
2	5424	1762.117951727593	21
2	5428	1763.577904917688	22
2	5429	1763.661542348684	21
2	5432	1764.942893831925	20
2	5436	1765.547474075227	21
2	5438	1765.788113871473	22
2	5439	1766.658969066785	21
2	5442	1768.271253926241	20
2	5446	1768.52244995161	21
2	5447	1769.753693754346	20
2	5450	1771.382543503986	19
2	5454	1771.69344591893	20
2	5456	1772.184995999785	21
2	5457	1773.025159583547	20
2	5460	1774.227638481119	19
2	5464	1774.651515278894	20
2	5466	1775.094962740991	21
2	5468	1775.874137618044	22
2	5469	1776.116671427832	21
2	5472	1777.416103337266	20
2	5476	1777.650855756912	21
2	5478	1777.692048592207	22
2	5479	1779.366435438142	21
2	5483	1779.881482788538	22
2	5484	1781.204584749349	21
2	5487	1782.477243103579	20
2	5491	1783.634537878953	21
2	5492	1783.897334780105	20
2	5496	1783.971422746327	21
2	5498	1784.60068513892	22
2	5499	1785.244578373924	21
2	5503	1786.902471209447	22
2	5504	1787.182186845809	21
2	5507	1788.621904428422	20
2	5510	1789.948153917983	19
2	5514	1790.577090597144	20
2	5515	1791.659324763648	19
2	5519	1793.431715410822	20
2	5520	1793.453333229504	19
2	5524	1793.9538003212	20
2	5526	1794.783223813533	21
2	5527	1795.185872818835	20
2	5531	1795.304156057913	21
2	5533	1796.521810531541	22
2	5535	1796.553945065159	23
2	5536	1796.938283908114	22
2	5540	1797.025292642861	23
2	5543	1798.757374891944	22
2	5547	1800.18372536958	23
2	5548	1800.212922532603	22
2	5553	1801.536888522401	21
2	5557	1802.345733890347	22
2	5558	1802.932111451707	21
2	5562	1803.553423546785	22
2	5563	1804.300279452956	21
2	5567	1804.87885569547	22
2	5568	1806.113198894753	21
2	5572	1806.554111929945	22
2	5574	1806.848050550933	23
2	5575	1808.042320477336	22
2	5579	1808.22239543144	23
2	5580	1809.974827085181	22
2	5583	1811.284308198399	21
2	5587	1812.911005979193	22
2	5588	1813.059571643478	21
2	5592	1813.890516106265	22
2	5593	1814.707031169093	21
2	5596	1816.215348969332	20
2	5600	1816.908420984829	21
2	5601	1817.522976555235	20
2	5605	1818.074787369544	21
2	5607	1818.099232086778	22
2	5609	1818.485112173712	23
2	5611	1818.666374428072	24
2	5613	1818.810781906631	25
2	5614	1819.176086901806	24
2	5618	1819.606273906732	25
2	5619	1820.718271463483	24
2	5622	1822.03246228595	23
2	5626	1822.765831168312	24
2	5627	1823.349473810687	23
2	5631	1823.562825406922	24
2	5632	1825.148976988464	23
2	5636	1826.743390304872	24
2	5637	1826.821916096031	23
2	5641	1826.8697368533	24
2	5642	1828.747250850803	23
2	5645	1830.065244575522	22
2	5649	1830.414837219583	23
2	5651	1830.644741566668	24
2	5652	1831.419379208914	23
2	5655	1832.821827601015	22
2	5659	1833.04687755235	23
2	5660	1834.152631340295	22
2	5664	1834.942053539696	23
2	5665	1835.74032318455	22
2	5668	1837.337869727731	21
2	5671	1839.303941343099	20
2	5675	1840.286776188028	21
2	5676	1840.959108489499	20
2	5680	1840.996744063798	21
2	5681	1842.908705506966	20
2	5684	1844.706611199424	19
2	5688	1844.8103701148	20
2	5690	1845.499366396464	21
2	5692	1846.014312071839	22
2	5694	1846.21279891661	23
2	5695	1846.706188013338	22
2	5699	1846.796342449838	23
2	5700	1848.197770847686	22
2	5703	1849.414869604007	21
2	5708	1851.195884931952	20
2	5711	1852.66225158193	19
2	5714	1853.890941195682	18
2	5718	1853.92879624126	19
2	5719	1855.251738061875	18
2	5723	1855.445115379303	19
2	5725	1855.971845942188	20
2	5727	1856.107429051924	21
2	5728	1857.172121054053	20
2	5731	1859.078336082518	19
2	5735	1859.923497859762	20
2	5736	1860.431948452935	19
2	5740	1861.00266824808	20
2	5741	1862.382459468514	19
2	5745	1863.513679006848	20
2	5746	1863.760297385723	19
2	5749	1865.264708538846	18
2	5753	1865.571223012444	19
2	5755	1865.812724191533	20
2	5757	1866.552007486941	21
2	5758	1867.020711258174	20
2	5762	1867.686956182892	21
2	5764	1868.205505830326	22
2	5766	1868.37544011839	23
2	5767	1868.7828475158	22
2	5771	1869.490872118411	23
2	5772	1870.63632767883	22
2	5776	1871.061161982542	23
2	5777	1872.003086443179	22
2	5781	1872.714413899993	23
2	5782	1873.498227649674	22
2	5786	1873.68966793273	23
2	5787	1875.30557352186	22
2	5790	1877.272789964385	21
2	5794	1877.502940877483	22
2	5796	1878.29827774353	23
2	5798	1878.435044348258	24
2	5799	1878.844032021172	23
2	5803	1880.054233336449	24
2	5804	1880.641720734656	23
2	5808	1881.305148773541	24
2	5809	1882.583231393926	23
2	5813	1882.632777085259	24
2	5814	1883.861188419841	23
2	5818	1884.072001846722	24
2	5820	1885.319960678335	25
2	5821	1885.646462583288	24
2	5825	1886.463228869257	25
2	5826	1887.0108782138	24
2	5830	1887.434134862986	25
2	5831	1888.352768270604	24
2	5834	1889.83498560854	23
2	5837	1891.059030035816	22
2	5841	1891.428629950054	23
2	5842	1892.936175350033	22
2	5846	1894.286658166182	23
2	5847	1894.613276268661	22
2	5851	1894.691227688125	23
2	5852	1896.205925536834	22
2	5855	1897.48596585349	21
2	5859	1897.803944296072	22
2	5860	1899.289120808177	21
2	5864	1899.361264601665	22
2	5865	1900.842088663139	21
2	5869	1900.935738939401	22
2	5870	1902.106351816774	21
2	5874	1902.360263203036	22
2	5875	1903.409127614953	21
2	5878	1905.010436216303	20
2	5881	1906.522172076003	19
2	5885	1906.704355246303	20
2	5887	1907.320108868636	21
2	5889	1907.517584370723	22
2	5890	1908.416191937895	21
2	5894	1909.450294154169	22
2	5895	1910.006018337355	21
2	5899	1910.068279741336	22
2	5900	1911.977058720336	21
2	5904	1913.347299190249	22
2	5905	1913.623384085417	21
2	5909	1914.015186892154	22
2	5910	1914.998828504913	21
2	5914	1915.952162165596	22
2	5915	1916.225308625892	21
2	5919	1916.260509673463	22
2	5921	1917.131252288697	23
2	5922	1917.767741714351	22
2	5926	1918.022258607679	23
2	5927	1919.661023178816	22
2	5931	1920.381550406012	23
2	5933	1921.060442144355	24
2	5934	1921.538949192807	23
2	5938	1922.132852659742	24
2	5940	1922.676134780988	25
2	5941	1923.010299438171	24
2	5945	1923.837316490745	25
2	5946	1924.956864914976	24
2	5950	1925.195772546971	25
2	5951	1926.417691781118	24
2	5955	1927.144910853047	25
2	5956	1927.950971595689	24
2	5960	1929.916935137136	25
2	5961	1929.924791511826	24
2	5964	1931.211042382873	23
2	5968	1932.285219002257	24
2	5970	1932.732093955511	25
2	5971	1932.850737241588	24
2	5975	1934.069597530622	25
2	5977	1934.495740680619	26
2	5978	1934.643114649809	25
2	5982	1935.447615921977	26
2	5983	1936.330320256694	25
2	5986	1937.662001354924	24
2	5990	1938.928476599348	25
2	5992	1939.137004820848	26
2	5993	1939.137728286094	25
2	5996	1940.470620899952	24
2	5999	1942.244637039608	23
2	6002	1943.802371887049	22
2	6006	1944.184695850559	23
2	6008	1944.274302457846	24
2	6010	1944.979555707536	25
2	6011	1945.238015385649	24
2	6015	1946.430453840197	25
2	6016	1947.200762422873	24
2	6020	1947.761230133071	25
2	6022	1947.953685293675	26
2	6024	1948.013664924676	27
2	6025	1948.603004560923	26
2	6029	1950.15891188757	27
2	6030	1950.232033301448	26
2	6034	1950.577367485052	27
2	6036	1950.771312013202	28
2	6038	1951.74354993418	29
2	6039	1951.983171847207	28
2	6043	1952.543678827182	29
2	6044	1953.688218499837	28
2	6047	1955.669292834518	27
2	6051	1956.796534422929	28
2	6052	1957.180956262653	27
2	6056	1957.948589178518	28
2	6057	1959.158379617078	27
2	6061	1960.376338930326	28
2	6062	1960.417128501391	27
2	6066	1960.50010254165	28
2	6068	1962.015435990743	29
2	6069	1962.216728025047	28
2	6072	1963.49636885014	27
2	6076	1964.278078152528	28
2	6077	1964.895922436124	27
2	6081	1965.111311125605	28
2	6083	1965.717431795722	29
2	6084	1966.866033501854	28
2	6087	1968.35039869391	27
2	6091	1969.246620167025	28
2	6092	1969.568074795721	27
2	6095	1970.769428628428	26
2	6099	1970.983746193944	27
2	6100	1972.459073116375	26
2	6104	1973.289926682136	27
2	6105	1974.41782190681	26
2	6108	1975.899161097524	25
2	6111	1977.457959570666	24
2	6114	1978.767499782634	23
2	6118	1978.792934924236	24
2	6119	1980.667039206368	23
2	6123	1980.8762849973	24
2	6124	1982.520103068021	23
2	6128	1983.216389376301	24
2	6130	1983.412194451598	25
2	6131	1984.19949837022	24
2	6135	1984.407832221431	25
2	6136	1985.983196003293	24
2	6140	1986.73083302729	25
2	6141	1987.55773585469	24
2	6145	1987.982000439431	25
2	6148	1988.828173538041	24
2	6151	1990.548983634193	23
2	6155	1991.100356366506	24
2	6156	1992.115449688886	23
2	6159	1994.014653605339	22
2	6163	1994.215055052623	23
2	6165	1994.311055782687	24
2	6166	1995.755706513789	23
2	6169	1997.109146660869	22
2	6173	1998.387029260775	23
2	6174	1998.744426955027	22
2	6178	2000.145945498895	23
2	6179	2000.395130248671	22
2	6183	2000.715195717508	23
2	6185	2001.39322808475	24
2	6187	2001.636787730787	25
2	6188	2001.79240521167	24
2	6192	2002.269946713032	25
2	6193	2003.234678843548	24
2	6196	2004.643029816193	23
2	6200	2004.708722461171	24
2	6201	2006.166955025425	23
2	6205	2007.191804053741	24
2	6206	2007.660462373612	23
2	6210	2009.281729083161	24
2	6211	2009.522341554356	23
2	6215	2011.405792771743	24
2	6216	2011.425190277328	23
2	6220	2011.880090854144	24
2	6221	2012.78220251028	23
2	6225	2013.716219303566	24
2	6226	2014.592669594218	23
2	6232	2015.653220097736	24
2	6233	2016.099022601848	23
2	6236	2017.324591486459	22
2	6239	2019.030928853271	21
2	6242	2020.308202955616	20
2	6246	2020.637419614471	21
2	6247	2022.064907893283	20
2	6250	2023.755507204985	19
2	6253	2025.105094601145	18
2	6257	2026.792916592904	19
2	6258	2026.92366582912	18
2	6262	2027.010144770481	19
2	6263	2028.65885069829	18
2	6267	2029.460671596235	19
2	6268	2030.012126964075	18
2	6272	2030.181828471978	19
2	6274	2031.961525728278	20
2	6275	2031.984244823014	19
2	6279	2032.009653261249	20
2	6280	2033.257523564366	19
2	6284	2034.633772139381	20
2	6285	2034.997760070232	19
2	6288	2036.295286420663	18
2	6292	2037.083329834941	19
2	6293	2038.128324405593	18
2	6297	2039.050638313184	19
2	6298	2039.414722003532	18
2	6302	2040.09375364329	19
2	6303	2040.745484842663	18
2	6307	2041.789774282207	19
2	6308	2042.175647855853	18
2	6312	2043.069492131122	19
2	6314	2043.503167564681	20
2	6315	2043.98592640881	19
2	6319	2044.95701350453	20
2	6320	2045.376218490047	19
2	6324	2046.696935828634	20
2	6326	2046.7252500818	21
2	6327	2046.733283043956	20
2	6331	2047.370175615972	21
2	6333	2047.5671482557	22
2	6334	2048.503098109668	21
2	6338	2048.814070513329	22
2	6339	2050.253778347304	21
2	6343	2051.246718846439	22
2	6344	2051.864375425247	21
2	6347	2053.853236758453	20
2	6351	2054.141711361993	21
2	6352	2055.232983720978	20
2	6355	2056.804001157102	19
2	6358	2058.70033706699	18
2	6362	2058.893730066011	19
2	6364	2059.354522401113	20
2	6365	2059.955141300265	19
2	6368	2061.375743688945	18
2	6371	2063.125197113794	17
2	6374	2064.46869445492	16
2	6378	2065.516438350724	17
2	6379	2065.810480798338	16
2	6382	2067.538579508033	15
2	6386	2068.280237458927	16
2	6389	2069.492099624802	15
2	6392	2071.090746594709	14
2	6396	2071.857434685477	15
2	6398	2072.097051603509	16
2	6399	2072.531765283201	15
2	6403	2073.352272946601	16
2	6404	2074.306715170037	15
2	6408	2075.599714099145	16
2	6409	2076.164080809359	15
2	6413	2077.069636464572	16
2	6415	2077.517521205489	17
2	6416	2078.094343078252	16
2	6419	2079.775220386799	15
2	6423	2079.959999843949	16
2	6425	2080.137785777591	17
2	6426	2081.680925205838	16
2	6432	2082.002646513359	17
2	6434	2083.02199082117	18
2	6435	2083.069063624855	17
2	6439	2083.266467114476	18
2	6442	2084.913792464439	17
2	6446	2085.810589657329	18
2	6447	2086.79542107128	17
2	6451	2086.847603317145	18
2	6453	2087.707464338547	19
2	6455	2088.396724695682	20
2	6456	2088.584292874601	19
2	6460	2088.623222712079	20
2	6462	2088.848410573423	21
2	6463	2090.55539045867	20
2	6467	2090.93894413605	21
2	6468	2091.970407328312	20
2	6471	2093.278472210397	19
2	6475	2093.422627119543	20
2	6477	2093.969219644	21
2	6479	2094.495111111837	22
2	6480	2094.736530498159	21
2	6483	2096.403342604753	20
2	6487	2096.585879055191	21
2	6489	2097.493602918429	22
2	6490	2097.956352865998	21
2	6494	2098.287957410164	22
2	6496	2098.360673504159	23
2	6497	2099.204864808847	22
2	6501	2099.388031702545	23
2	6503	2100.576645041287	24
2	6504	2100.927359394845	23
2	6508	2101.849062425925	24
2	6509	2102.458618850004	23
2	6513	2103.616119356675	24
2	6515	2103.622692397082	25
2	6516	2104.387462687422	24
2	6520	2104.987923131705	25
2	6521	2106.37885949884	24
2	6524	2108.281094786082	23
2	6528	2109.073673281058	24
2	6530	2109.468071506301	25
2	6532	2109.471464121543	26
2	6533	2110.032687652227	25
2	6537	2110.37769708235	26
2	6539	2110.496910571297	27
2	6540	2111.336199850146	26
2	6543	2113.109272749465	25
2	6547	2114.333878960409	26
2	6549	2114.447364722912	27
2	6551	2114.942210902188	28
2	6552	2115.015144100156	27
2	6556	2115.289433160191	28
2	6558	2116.29425970246	29
2	6559	2116.476172632654	28
2	6562	2117.830415622075	27
2	6565	2119.270556710777	26
2	6568	2121.029839098384	25
2	6571	2122.231733386894	24
2	6575	2122.428138974877	25
2	6577	2122.567486946061	26
2	6578	2123.706381501374	25
2	6581	2125.01660500702	24
2	6585	2126.599184453821	25
2	6586	2126.722844861937	24
2	6589	2128.106289132242	23
2	6593	2129.40040769381	24
2	6594	2130.033040955034	23
2	6598	2131.338200336066	24
2	6599	2131.600689956476	23
2	6603	2132.465750388593	24
2	6604	2132.946194362384	23
2	6607	2134.193758778018	22
2	6611	2134.294960469144	23
2	6613	2134.956180037365	24
2	6614	2136.01011259642	23
2	6617	2137.564224176412	22
2	6620	2139.144112633286	21
2	6624	2140.477912886721	22
2	6625	2140.566310064239	21
2	6628	2142.344577842695	20
2	6632	2144.061531513185	21
2	6634	2144.109447002754	22
2	6635	2144.246749545751	21
2	6639	2145.263290286417	22
2	6640	2146.107359068772	21
2	6644	2147.407501246111	22
2	6645	2147.727029077267	21
2	6648	2149.20043049485	20
2	6651	2151.194704399188	19
2	6654	2152.950682563265	18
2	6658	2153.472861855015	19
2	6659	2154.570040856232	18
2	6662	2155.960607898538	17
2	6666	2156.259380974047	18
2	6667	2157.621660497342	17
2	6671	2158.375145503126	18
2	6673	2158.432780633839	19
2	6674	2159.125761573692	18
2	6677	2160.566787940008	17
2	6680	2161.857561314968	16
2	6684	2162.311566167992	17
2	6685	2163.652685567109	16
2	6689	2163.841109376378	17
2	6691	2164.186899273924	18
2	6693	2164.431353181391	19
2	6694	2165.529322716152	18
2	6698	2166.952753371908	19
2	6699	2167.083890155634	18
2	6703	2167.440416329466	19
2	6704	2168.576123890957	18
2	6707	2170.105628514407	17
2	6711	2170.200206156642	18
2	6712	2171.779877952976	17
2	6716	2172.706936920193	18
2	6717	2173.013323267294	17
2	6721	2173.406550965071	18
2	6723	2174.190494992682	19
2	6725	2174.461730145318	20
2	6727	2174.956736382105	21
2	6728	2174.981860248862	20
2	6732	2176.068023219393	21
2	6733	2176.477956866404	20
2	6737	2176.647478503159	21
2	6738	2177.913924065908	20
2	6741	2179.463769354043	19
2	6745	2179.812414115123	20
2	6747	2179.889616786711	21
2	6748	2180.770014658873	20
2	6751	2182.620281535876	19
2	6755	2183.02283562816	20
2	6756	2184.238972437312	19
2	6760	2184.612385968606	20
2	6761	2185.448666176875	19
2	6764	2187.022669226606	18
2	6768	2187.081277402397	19
2	6769	2188.505330951069	18
2	6773	2190.035111389552	19
2	6774	2190.11728374504	18
2	6778	2191.341141731084	19
2	6780	2191.667713816623	20
2	6782	2191.819609371739	21
2	6783	2192.03308256336	20
2	6787	2193.935045883929	21
2	6788	2194.031696701352	20
2	6792	2194.608820285466	21
2	6794	2195.048296681227	22
2	6795	2195.23913512316	21
2	6799	2195.298945093082	22
2	6801	2195.430730873023	23
2	6803	2196.398802097976	24
2	6804	2196.997501070913	23
2	6808	2197.030459661816	24
2	6809	2198.650401149433	23
2	6813	2199.659438554422	24
2	6816	2200.367664796974	23
2	6820	2201.571821087664	24
2	6821	2201.787035435553	23
2	6825	2202.727372928693	24
2	6826	2203.73145399608	23
2	6829	2205.017528329718	22
2	6833	2205.151305306828	23
2	6835	2205.213849474274	24
2	6837	2205.308684901295	25
2	6839	2205.804076214049	26
2	6840	2206.904760413732	25
2	6844	2207.100078944927	26
2	6845	2208.706776533205	25
2	6848	2210.558052064408	24
2	6852	2210.618529270806	25
2	6854	2210.732897088756	26
2	6856	2210.911188706108	27
2	6857	2211.919380481471	26
2	6861	2213.057153981137	27
2	6862	2213.404670706135	26
2	6865	2214.634879726474	25
2	6869	2214.856560407315	26
2	6871	2214.949733610669	27
2	6872	2216.531142290984	26
2	6875	2218.068271464598	25
2	6879	2218.168561062897	26
2	6881	2218.653745723147	27
2	6883	2218.99871054222	28
2	6884	2219.919957414572	27
2	6888	2220.642533117822	28
2	6889	2221.67815001097	27
2	6892	2223.595625209179	26
2	6895	2225.56775329553	25
2	6899	2225.892093422487	26
2	6901	2226.001105582791	27
2	6902	2226.985264826868	26
2	6905	2228.47805835281	25
2	6908	2230.054178998735	24
2	6912	2230.621813952432	25
2	6913	2232.006747559574	24
2	6916	2233.790150144998	23
2	6919	2235.106803891737	22
2	6926	2236.560281863738	21
2	6930	2238.14096925824	22
2	6932	2238.448615848201	23
2	6933	2238.514519871328	22
2	6936	2240.081782273505	21
2	6940	2241.007332291323	22
2	6941	2241.427346899476	21
2	6945	2242.120008687732	22
2	6946	2242.866831061918	21
2	6949	2244.101927588809	20
2	6952	2245.853693842817	19
2	6955	2247.278304895688	18
2	6959	2247.524052488617	19
2	6961	2248.120188196204	20
2	6963	2248.261688146526	21
2	6965	2248.333932638108	22
2	6967	2248.578863429867	23
2	6968	2249.136913450737	22
2	6972	2250.645702541445	23
2	6973	2250.678211588156	22
2	6976	2252.037002714281	21
2	6980	2252.536377801097	22
2	6981	2253.801336693135	21
2	6985	2254.216649958829	22
2	6987	2254.892991909331	23
2	6989	2255.346976973832	24
2	6991	2255.377244735776	25
2	6992	2255.729691903409	24
2	6996	2256.819226734047	25
2	6997	2257.074131190706	24
2	7000	2259.058353014406	23
2	7004	2260.780814512841	24
2	7005	2260.844606667314	23
2	7009	2261.998874260632	24
2	7010	2262.518212205101	23
2	7015	2263.812757604685	22
2	7019	2265.177522387402	23
2	7020	2265.225015282933	22
2	7024	2265.30819220748	23
2	7025	2266.912082471256	22
2	7029	2267.500926152109	23
2	7030	2268.539827782591	22
2	7034	2268.941861151995	23
2	7036	2270.208569543904	24
2	7038	2270.272691079987	25
2	7040	2270.317611022401	26
2	7041	2270.397307258961	25
2	7045	2271.388063886599	26
2	7047	2271.500768017385	27
2	7048	2272.140933721815	26
2	7051	2273.919503493164	25
2	7055	2273.92798129646	26
2	7057	2274.228560513075	27
2	7061	2275.900608385741	28
2	7062	2275.914350734208	27
2	7065	2277.393154295836	26
2	7069	2277.499077876723	27
2	7071	2278.903586852724	28
2	7072	2278.946512968954	27
2	7076	2278.955392962625	28
2	7078	2279.675612922795	29
2	7079	2280.778985653747	28
2	7083	2281.116741099932	29
2	7085	2281.167348239338	30
2	7086	2282.216275614429	29
2	7089	2283.587680588033	28
2	7093	2283.606835324873	29
2	7095	2283.761262565933	30
2	7096	2285.441913373884	29
2	7099	2287.149776182626	28
2	7103	2287.269133662207	29
2	7105	2288.184419177655	30
2	7106	2288.845676969667	29
2	7110	2289.554564065991	30
2	7112	2290.02919261118	31
2	7113	2290.200779971038	30
2	7117	2291.202462988764	31
2	7118	2292.198919967492	30
2	7122	2292.561930886418	31
2	7124	2293.923450085319	32
2	7125	2294.013455340383	31
2	7128	2295.765257375059	30
2	7132	2296.054510323228	31
2	7133	2297.684979114798	30
2	7136	2299.47785074946	29
2	7140	2300.532815362045	30
2	7141	2300.812670352054	29
2	7145	2301.309658101726	30
2	7146	2302.12165480007	29
2	7150	2302.43091926528	30
2	7151	2303.323091120017	29
2	7155	2303.896592035447	30
2	7156	2304.626329388586	29
2	7159	2306.551650552009	28
2	7163	2307.672016488085	29
2	7164	2308.351996244606	28
2	7168	2308.353740685552	29
2	7170	2308.926307547914	30
2	7171	2310.333977895905	29
2	7175	2311.082431456196	30
2	7176	2312.056203618017	29
2	7180	2312.333323555349	30
2	7182	2312.533040406706	31
2	7183	2313.872717880947	30
2	7187	2314.391598266322	31
2	7190	2315.726185184089	30
2	7193	2316.979425825109	29
2	7197	2317.299644324252	30
2	7198	2318.713137668674	29
2	7202	2318.903157034327	30
2	7203	2320.344568140363	29
2	7207	2320.732595409858	30
2	7208	2322.312058948842	29
2	7213	2324.125451492076	28
2	7217	2324.707548388955	29
2	7219	2325.21320206181	30
2	7223	2325.72340610065	31
2	7224	2326.052619729866	30
2	7228	2326.400579558402	31
2	7230	2326.445245600606	32
2	7232	2326.847817624876	33
2	7234	2326.912695854977	34
2	7235	2327.358952569146	33
2	7238	2328.955469689261	32
2	7243	2330.419084581848	31
2	7246	2331.985658073541	30
2	7250	2332.937108672282	31
2	7251	2333.41577826247	30
2	7254	2335.251206116308	29
2	7258	2336.005955427536	30
2	7260	2336.535961226432	31
2	7261	2337.007175121945	30
2	7264	2338.358082698215	29
2	7268	2339.494809691765	30
2	7270	2340.033840494379	31
2	7271	2340.109128184919	30
2	7275	2340.610841919063	31
2	7276	2341.926810271595	30
2	7280	2343.678901717025	31
2	7281	2343.699430956435	30
2	7285	2344.378031728613	31
2	7286	2345.15793532182	30
2	7290	2346.359237150905	31
2	7291	2347.104029991222	30
2	7294	2348.862440777873	29
2	7298	2349.429457270348	30
2	7299	2350.154866717873	29
2	7303	2350.992288512069	30
2	7304	2351.404707115261	29
2	7307	2353.075512947818	28
2	7311	2354.033300738966	29
2	7313	2354.171700822758	30
2	7314	2354.873324777862	29
2	7318	2356.081503299364	30
2	7319	2356.142787557026	29
2	7323	2357.706201493853	30
2	7324	2357.929849859258	29
2	7328	2358.733900045732	30
2	7329	2359.528946593521	29
2	7332	2361.402925208887	28
2	7336	2362.9844665064	29
2	7337	2362.991536337813	28
2	7341	2364.42889009131	29
2	7342	2364.893543345784	28
2	7346	2365.541380587047	29
2	7348	2365.902365481896	30
2	7349	2366.82550913461	29
2	7352	2368.795680278656	28
2	7355	2370.436217633565	27
2	7359	2370.699923295748	28
2	7360	2371.879522485961	27
2	7364	2373.053910412138	28
2	7365	2373.538621669006	27
2	7368	2375.247152862441	26
2	7372	2375.947722123997	27
2	7374	2376.185278402676	28
2	7375	2376.525136440363	27
2	7379	2376.914413888208	28
2	7381	2377.232938523759	29
2	7382	2378.199309721332	28
2	7386	2378.538616806189	29
2	7387	2379.78357344095	28
2	7391	2379.786714432982	29
2	7393	2380.939979010533	30
2	7394	2381.491818433743	29
2	7398	2382.65441838373	30
2	7399	2383.13542884637	29
2	7403	2384.109654475442	30
2	7404	2385.08404044744	29
2	7408	2385.17469689044	30
2	7410	2386.811216876603	31
2	7411	2386.829169796895	30
2	7414	2388.287420237925	29
2	7420	2389.373445259156	30
2	7421	2390.17920466524	29
2	7425	2390.514841099087	30
2	7426	2391.403776645031	29
2	7430	2392.587222425934	30
2	7431	2392.770088031072	29
2	7435	2393.696413288487	30
2	7436	2394.627588246133	29
2	7440	2395.298845280527	30
2	7441	2396.255310895409	29
2	7445	2396.937531483343	30
2	7446	2397.674944895062	29
2	7450	2399.095934782669	30
2	7451	2399.470549308624	29
2	7455	2399.95518560932	30
2	7456	2400.685780636523	29
2	7460	2401.328525764286	30
2	7461	2402.156057819095	29
2	7464	2403.502496219729	28
2	7467	2405.019100936432	27
2	7471	2406.46161149349	28
2	7472	2406.615589570743	27
2	7476	2407.387469295346	28
2	7477	2408.168647993845	27
2	7481	2408.380815289897	28
2	7482	2409.461623216351	27
2	7485	2411.282610003022	26
2	7489	2411.809093975137	27
2	7490	2412.649630368618	26
2	7494	2413.230494035924	27
2	7495	2414.221718007071	26
2	7499	2414.84444022913	27
2	7501	2415.953474045939	28
2	7502	2416.121102690255	27
2	7506	2416.926101084473	28
2	7507	2417.976798181912	27
2	7510	2419.869238138875	26
2	7514	2420.910440634134	27
2	7516	2421.486288781864	28
2	7518	2421.511355091488	29
2	7519	2421.597061983986	28
2	7523	2422.65912739512	29
2	7525	2423.084802073215	30
2	7526	2423.541278367048	29
2	7529	2425.445370386099	28
2	7532	2426.723222629843	27
2	7535	2428.259732453083	26
2	7541	2429.199919975394	27
2	7542	2430.206024929253	26
2	7546	2430.750659502071	27
2	7547	2431.533753177454	26
2	7551	2431.864581926399	27
2	7552	2433.34652910207	26
2	7556	2433.908325257605	27
2	7557	2434.958923107503	26
2	7561	2435.869096998144	27
2	7562	2436.894386096602	26
2	7565	2438.798193925922	25
2	7569	2439.061326926249	26
2	7571	2440.274229985925	27
2	7572	2440.589752787468	26
2	7577	2441.958923722175	25
2	7581	2442.03367512672	26
2	7583	2442.961969188087	27
2	7584	2443.454839267512	26
2	7587	2444.749067519722	25
2	7591	2444.803863190072	26
2	7593	2444.924107455654	27
2	7595	2445.12921498656	28
2	7597	2446.004118230089	29
2	7599	2446.16105066991	30
2	7600	2446.476494389517	29
2	7604	2447.640108675093	30
2	7605	2448.292814986339	29
2	7609	2449.258915585014	30
2	7610	2449.696148629045	29
2	7614	2449.875408052232	30
2	7616	2451.562612799321	31
2	7617	2451.599713967672	30
2	7621	2452.926712892508	31
2	7622	2453.277722529812	30
2	7626	2454.648571549412	31
2	7627	2454.755033111317	30
2	7631	2454.949137802719	31
2	7632	2456.281914948789	30
2	7635	2457.95789793965	29
2	7639	2458.251732394859	30
2	7640	2459.362773885509	29
2	7644	2459.915752677832	30
2	7645	2460.847573582573	29
2	7649	2461.903312075776	30
2	7651	2462.090935377356	31
2	7653	2462.093779033182	32
2	7655	2462.501018415444	33
2	7656	2462.792527949369	32
2	7659	2464.001370329528	31
2	7663	2464.695015236177	32
2	7664	2465.34237688177	31
2	7668	2466.492067986331	32
2	7670	2466.878161252491	33
2	7671	2466.892956033095	32
2	7675	2467.335652359794	33
2	7676	2468.37821040482	32
2	7680	2469.545421311567	33
2	7681	2469.641978856108	32
2	7685	2471.019869013047	33
2	7686	2471.480873832597	32
2	7689	2472.681497840329	31
2	7693	2473.656853194138	32
2	7694	2474.048060066557	31
2	7698	2474.12515904686	32
2	7700	2474.3934838964	33
2	7702	2474.754654028251	34
2	7703	2475.266998097046	33
2	7707	2475.525106450863	34
2	7708	2477.186098472519	33
2	7712	2478.147728949395	34
2	7713	2478.405004611543	33
2	7717	2479.075031961855	34
2	7718	2480.218018556318	33
2	7722	2482.04720880739	34
2	7723	2482.1741186769	33
2	7727	2482.393689019555	34
2	7728	2483.436772747084	33
2	7731	2484.897097519345	32
2	7735	2485.490255652277	33
2	7737	2486.189371088337	34
2	7738	2486.420688157088	33
2	7742	2486.815919183334	34
2	7743	2487.832777975059	33
2	7747	2488.497232787271	34
2	7748	2489.463650195978	33
2	7752	2490.890246766406	34
2	7754	2491.11630928691	35
2	7755	2491.281366471134	34
2	7759	2491.301091174013	35
2	7760	2493.103202348322	34
2	7763	2494.406199953266	33
2	7767	2495.420504282343	34
2	7769	2495.662941537466	35
2	7770	2496.007803766922	34
2	7774	2497.04443153267	35
2	7775	2497.599887043358	34
2	7779	2498.479835179709	35
2	7780	2499.193850807035	34
2	7783	2501.038031364726	33
2	7787	2501.870542719566	34
2	7788	2502.300613800557	33
2	7792	2503.491160847458	34
2	7793	2503.931695139529	33
2	7796	2505.449530727537	32
2	7800	2505.659202420427	33
2	7802	2506.14559599694	34
2	7803	2506.877244121702	33
2	7807	2507.231922970674	34
2	7808	2508.118013734491	33
2	7811	2509.943156203562	32
2	7815	2510.545322185719	33
2	7817	2510.877569098808	34
[...]
5	84455	26469.812436009273	2062.6535083912
5	84488	26481.383731141948	318.71399396039
5	84527	26492.130589137302	1792.2502988943
5	84582	26508.402959525662	635.39472177362
5	84626	26518.127049318406	1240.1721160389
5	84644	26524.204156700228	636.39446503015
5	84649	26526.159732760568	311.82578948566
5	84669	26532.487427259875	315.11717009077
5	84697	26542.641625952801	943.84649516788
5	84712	26547.006443234054	1805.1454734564
5	84737	26555.802226161477	948.45364482009
5	84818	26580.030979898464	1255.54764584
5	84825	26581.569849911969	642.17642148497
5	84833	26584.624785524685	1825.672163426
5	84853	26591.70225502577	954.06815713203
5	84897	26604.359356539403	2642.0618684069
5	84928	26611.993041826119	2645.5467234921
5	84964	26624.966948468318	641.1889979502
5	84986	26631.003072207501	954.0691427147
5	85026	26642.83689368673	1836.896721608
5	85045	26647.873016459759	640.04628806147
5	85103	26666.751561359019	329.02937100837
5	85110	26668.574089512491	960.7514073169
5	85129	26673.339228109719	330.01177615208
5	85154	26681.564093648159	963.477674452
5	85179	26689.356442712137	2903.8989291603
5	85312	26727.12636781473	646.60943773122
5	85327	26734.313690879645	648.55068040632
5	85342	26738.949169046136	1872.0095469163
5	85347	26740.31256223757	2943.2823307448
5	85367	26747.031793178507	1569.9962460179
5	85385	26753.436010432878	1862.6960807165
5	85393	26756.369372099155	971.86665806828
5	85441	26765.807769979426	652.79542015189
5	85447	26768.720395840594	2943.4218289796
5	85500	26783.988261212856	2684.6461774483
5	85574	26805.647989463882	1857.5024345782
5	85662	26830.653181102389	3737.1035145405
5	85680	26836.895375713781	971.42375375926
5	85686	26840.152123779879	1859.3571103052
5	85698	26843.334318103903	976.09587062132
5	85745	26854.635716638417	659.55898910088
5	85803	26874.199385044054	655.8373939799
5	85851	26890.687457571069	1286.5404205491
5	85925	26911.278038805428	337.0006524112
5	85969	26924.546977123323	2165.0050010253
5	86001	26930.693011982072	2711.3888965756
5	86031	26940.123258111331	3255.1882506869
5	86058	26948.761859351101	988.00735321007
5	86077	26957.013564671281	338.95674759479
5	86088	26961.508458705883	1897.6674641266
5	86093	26962.808555544059	2175.915178103
5	86157	26981.400383080434	983.41806934079
5	86187	26987.937090171207	2182.5182364566
5	86192	26989.662188867372	982.74851835121
5	86225	27000.891536812935	1600.3766917131
5	86239	27003.894278386872	671.43676392274
5	86249	27007.185039066974	341.77383719994
5	86262	27012.038946111578	1914.9481252662
5	86276	27018.694767892997	3540.1394906862
5	86298	27025.294811773565	675.68693025559
5	86301	27026.983564489972	1308.6875542054
5	86355	27043.391525888336	1311.1792472796
5	86377	27050.174440222126	8378.2554880784
5	86386	27051.739864152749	681.0352221216
5	86410	27062.042882352216	685.18177800652
5	86430	27068.05388370928	352.43116267776
5	86455	27075.4971903785	685.7644843679
5	86554	27103.555763787484	1929.950106195
5	86567	27108.446226287713	9060.7254457176
5	86573	27111.753621777972	351.50358434623
5	86578	27113.691189723169	691.2367084851
5	86617	27127.672615246742	1013.0916663957
5	86653	27137.405962481058	355.76748666577
5	86673	27143.657042412727	1021.3600893551
5	86678	27145.140871355763	3045.9676806913
5	86681	27147.04124035657	1017.3948886644
5	86699	27153.908574669889	6901.0471539282
5	86726	27161.879384912073	3317.4062214563
5	86729	27163.599864232435	695.55804047938
5	86741	27166.336738743528	1023.5199184021
5	86746	27168.25720160593	695.67691880448
5	86751	27170.23584858299	1942.7587550057
5	86754	27171.568328648887	1633.3674694933
5	86757	27173.05933042661	360.35102328144
5	86800	27186.643575263106	1016.5169688188
5	86847	27199.943282348932	703.61978363008
5	86869	27206.245941231296	700.04070011707
5	86915	27218.860833576963	1343.7396562123
5	86957	27232.049318312377	1025.5917381492
5	86967	27235.547363981128	1021.0656421547
5	86984	27240.90377022092	1959.3724519174
5	87014	27249.66038878531	4667.6334524997
5	87039	27257.403274876147	2242.2121067084
5	87052	27262.635142280056	703.42997242185
5	87055	27264.206506452232	703.35790364316
5	87063	27267.331643266871	1028.5964945792
5	87135	27290.383299612335	1038.8620539213
5	87183	27303.746317094458	376.92154904475
5	87205	27310.646297490491	2261.7369269486
5	87283	27332.555786627985	375.34970060239
5	87292	27337.317939681269	3907.0086142783
5	87308	27344.042415669083	718.44229028189
5	87313	27345.902053166821	2558.3424914792
5	87318	27347.725028290867	4714.161006687
5	87421	27379.398854788102	5554.7948008082
5	87447	27386.427646611339	384.21721455628
5	87457	27390.27618393161	728.43015264122
5	87460	27391.612599226913	1991.0309650462
5	87483	27399.427299937687	378.19793931437
5	87547	27419.767714964493	729.61392178583
5	87591	27433.14816445884	1064.0175669666
5	87617	27439.298416422389	735.58291464597
5	87634	27444.040986271843	2306.8701214589
5	87644	27447.246177321568	2309.7701007362
5	87672	27456.193245830469	379.21057284784
5	87687	27461.422514845513	739.06347591544
5	87747	27479.277346847848	1073.6770884196
5	87752	27480.912086547994	2318.8768868775
5	87789	27492.769263438219	1074.1889240793
5	87809	27498.942933846721	374.9302404889
5	87819	27501.855795288728	736.52484959857
5	87851	27510.594685947048	1714.545910665
5	87854	27512.459881450506	2006.9749883915
5	87908	27530.933688823404	1067.4133732196
5	87997	27559.729672774198	365.42170028782
5	88002	27561.473443562622	2592.4346033982
5	88056	27575.288368077849	1069.8295139783
5	88126	27596.578527816473	732.67179040845
5	88143	27601.073901086762	1720.7399129595
5	88160	27605.845058770194	370.36133452089
5	88227	27627.922109690211	1726.4097738485
5	88251	27634.238605967252	3156.8855928534
5	88256	27636.141037757969	2322.4705004632
5	88264	27638.907043190947	365.74103859756
5	88344	27664.270639657504	740.20602666319
5	88397	27681.796740703188	747.92848497026
5	88422	27690.438365567751	751.64639146552
5	88454	27700.672061827495	1093.8514580334
5	88457	27702.022903496116	754.52550495524
5	88467	27705.053717284925	1097.5703036165
5	88470	27706.623099841825	376.00587776971
5	88559	27735.794989913419	2056.4042276427
5	88576	27741.258088813439	370.97034147239
5	88599	27749.456129649744	763.54346745399
5	88620	27757.668434820601	767.79204238894
5	88637	27762.731628047952	381.14336666361
5	88698	27781.410513793022	767.61947274773
5	88751	27799.237880108782	768.28264774408
5	88756	27800.48225474646	1445.1734741012
5	88761	27801.697856458366	376.28422179756
5	88827	27821.659228252522	385.48938621457
5	88832	27823.532013053908	772.075017786
5	88842	27826.74894048506	385.62691365412
5	88884	27839.981657830715	1123.4654468834
5	88902	27846.30821005413	386.06045483394
5	88912	27849.540106472463	1127.4232361147
5	88927	27854.256082684636	770.02920498894
5	88988	27871.650021466888	1121.1865273107
5	88991	27873.296819334194	390.00009225997
5	89043	27887.984495063588	1461.0347948203
5	89116	27909.042816578872	1126.1463816024
5	89163	27922.932823166528	764.07480238601
5	89183	27929.645916752235	3800.0469010282
5	89191	27932.534618085899	755.31387376419
5	89244	27949.537754038066	1124.6424589138
5	89249	27950.848234410115	2982.0243798312
5	89261	27954.142245381974	390.01775548465
5	89274	27958.67999095758	1128.7093452008
5	89311	27969.419592950582	1123.9877279941
5	89335	27975.431272812649	1464.6262652913
5	89369	27984.648541682116	3812.608596416
5	89376	27986.140122598312	1793.2191046789
5	89436	28006.215563665605	395.80649046226
5	89461	28013.938113192185	395.25363200349
5	89468	28015.598045931473	1137.3623100257
5	89535	28032.485221400386	1128.8490482572
5	89557	28039.204148740409	1130.0759003219
5	89564	28040.920069723478	390.87525221852
5	89611	28055.247829455972	760.6308709673
5	89629	28061.371824113369	1480.6748401032
5	89634	28063.216105583213	3029.8166362693
5	89652	28070.287068526722	763.46619229167
5	89681	28078.765047868989	1480.004402078
5	89718	28090.037988527767	765.91072576619
5	89792	28112.445276182606	764.00958048913
5	89795	28114.182412676229	2750.7385804072
5	89820	28122.351293683885	760.3808283736
5	89828	28125.018967033265	3052.0586570209
5	89835	28126.694172684191	6034.6553881945
5	89838	28128.077023481293	1817.8841155802
5	89865	28136.753406417458	764.8957364536
5	89889	28143.35067204134	1155.8610349687
5	89910	28151.981288864924	771.81925266311
5	89942	28161.481965021691	1831.7118158878
5	89950	28164.455753510906	1833.7102611404
5	89973	28172.973910806788	1836.1522464559
5	89998	28181.537715491181	4692.4155945638
5	90033	28193.326875082676	3887.9662650316
5	90080	28206.743351439472	2157.7926329673
5	90083	28208.641978482801	1163.940282026
5	90088	28210.281395950626	3360.2396225166
5	90096	28213.096995135482	2479.94418204
5	90101	28214.839900848355	780.74771789009
5	90153	28231.230439418269	784.31993574355
5	90161	28235.107211949577	2484.2529433879
5	90186	28243.100694759091	3917.3110637081
5	90192	28246.264389835757	2493.1968754359
5	90314	28280.074844512057	786.614343356
5	90334	28287.154519820672	788.82580666333
5	90342	28289.898788745415	4739.6659385551
5	90360	28296.872352200833	3104.4855122913
5	90387	28305.711970818503	788.23937245585
5	90407	28311.607501174411	1529.6018685635
5	90435	28320.551595535217	1866.9297639789
5	90448	28324.979383645481	790.5855990016
5	90465	28329.973514065793	787.57157595907
5	90483	28336.490432771197	1519.8243397426
5	90509	28343.079041009297	3919.7112060692
5	90538	28350.587689559249	400.16529399705
5	90546	28353.567101478105	1524.4009535248
5	90566	28360.283931781998	399.43785893721
5	90610	28376.302622122964	1167.8512096748
5	90650	28389.261010927421	2820.3044073451
5	90664	28392.887953852576	1176.3570716563
5	90667	28394.388839250703	408.67806687166
5	90673	28397.365382148411	1543.1975124876
5	90688	28401.877265212026	3127.5512201587
5	90723	28412.776508668523	1172.9600821187
5	90784	28433.177948005581	1889.7923729084
5	90792	28436.27369106532	1185.4374826658
5	90803	28437.793565624849	1891.3936155927
5	90830	28446.370376945742	416.89868825766
5	90855	28454.3522072791	1178.8526727675
5	90872	28459.18691707038	3144.403378104
5	90884	28462.36655853734	2533.1225265846
5	90931	28476.352683093478	1181.0903572753
5	90949	28483.415290461374	414.86977843984
5	90979	28491.761427378735	809.55361243134
5	91018	28506.590290256111	2545.9621750067
5	91025	28508.034643613627	1563.2956829681
5	91061	28521.335674572072	1558.3876006228
5	91069	28524.980325662612	808.14450889502
5	91128	28540.164651174925	2555.142020523
5	91133	28541.866769478924	416.52848758162
5	91148	28547.315905614279	415.79691576357
5	91199	28565.727478592925	1576.2238778385
5	91205	28568.77313001667	807.31668496959
5	91216	28573.223713742651	3486.4706164155
5	91320	28601.428929570772	1186.9081405417
5	91373	28615.119479121723	409.56208523723
5	91380	28617.088452112571	3191.9891283997
5	91400	28623.959124400549	1926.0588655661
5	91424	28629.877014809184	1578.427339267
5	91447	28637.086442254939	3780.2310422427
5	91472	28645.173351879874	3785.1410621651
5	91477	28646.833065482685	1926.1647732675
5	91492	28651.493069464425	800.19192681062
5	91608	28685.74752225139	1928.7882733213
5	91650	28697.920703843131	404.65812754724
5	91683	28706.257253345928	2273.6625016122
5	91693	28709.285306057414	405.93534834859
5	91701	28712.46734433685	2593.4286982409
5	91709	28715.915358367269	1192.4765182369
5	91717	28718.838793019098	811.08534705123
5	91737	28725.30284440842	3802.1809521331
5	91762	28733.675910758493	404.24908337341
5	91765	28735.168168874537	2595.1170686517
5	91802	28746.844566694727	405.78429135503
5	91835	28757.598607017553	3206.5823374769
5	91938	28788.504737233078	2606.3435192389
5	91959	28794.195935212528	403.73581775607
5	91967	28796.897146593114	2928.7878498124
5	91987	28803.882210333166	2606.0371290597
5	92023	28813.324782552463	806.3725614172
5	92026	28814.526814327468	2599.1451725449
5	92033	28816.515075578433	2600.3049351876
5	92065	28826.341155488682	4910.0910161204
5	92090	28834.722521390287	1213.5359616385
5	92098	28837.783414076534	816.35720599392
5	92103	28839.210692213555	813.01440681525
5	92118	28844.501488098768	2941.8778155612
5	92144	28854.170208221008	397.79679594058
5	92182	28865.97448965561	815.15091794233
5	92230	28878.289758858163	1953.1176705245
5	92236	28881.055727155398	1955.2725274318
5	92260	28887.863067230288	2620.8320511366
5	92371	28920.148998166327	814.73637313489
5	92379	28923.833600619328	395.62220974229
5	92401	28929.762658984851	1211.6106768549
5	92429	28938.631214210281	397.23273076009
5	92434	28940.277697626391	814.89808713672
5	92442	28943.956106783526	1205.4253768514
5	92450	28946.959044255579	810.38826281918
5	92456	28950.341843649076	389.33544227771
5	92476	28956.259971758427	1583.2878104658
5	92515	28966.632251962537	1201.356834222
5	92530	28972.312484845782	1584.7763375014
5	92533	28973.811523827428	389.50034588648
5	92541	28976.486814624521	390.34865821469
5	92554	28981.393917024213	392.61412346586
5	92557	28983.010138418603	1589.1038510116
5	92597	28995.078977614345	5221.785918579
5	92612	28999.700464777912	394.88789109801
5	92617	29001.45332257774	808.50463153895
5	92667	29018.526212993713	398.03213743326
5	92670	29019.930376697035	1211.89156335
5	92673	29021.198781411426	3293.133460189
5	92679	29024.381150291378	810.78743956448
5	92686	29026.067527176889	399.1119615483
5	92703	29031.284937203194	1206.0173021598
5	92759	29046.898191936765	399.37543869103
5	92815	29062.906592471044	1203.8133890531
5	92820	29064.464894068505	2982.9264050877
5	92832	29067.995802174959	12337.557147159
5	92843	29072.309978901859	399.98214496691
5	92853	29075.529588705752	398.77811639859
5	92883	29085.515362477381	2680.7359969018
5	92893	29088.784112679292	1608.1774124094
5	92921	29094.736492099506	2339.0334903287
5	92931	29098.258499082257	4213.1107479772
5	92952	29105.159381436264	1217.571045193
5	92972	29111.228270965894	407.49561981084
5	92980	29113.962243508813	1606.8286738908
5	93033	29131.844552319761	404.70090104483
5	93079	29141.404409162033	2678.4877737182
5	93110	29152.857703786608	1603.9048089936
5	93119	29154.329554866519	1975.5884715909
5	93132	29156.227040117126	2672.8220373874
5	93148	29162.123742599305	814.15252617994
5	93195	29175.833755532917	406.81570504975
5	93211	29182.657267065052	1218.2774549035
5	93216	29184.152558404286	1612.2923443861
5	93224	29186.772827310193	4480.6257107268
5	93233	29188.154355228398	1216.8044170363
5	93250	29192.844775845747	1613.9201237741
5	93282	29203.028451340537	1618.4721370716
5	93401	29238.311103509071	1219.149337467
5	93406	29239.52274823569	809.09341136613
5	93416	29242.837305284182	809.31991606901
5	93432	29249.40597257212	3649.9379299902
5	93445	29254.298749258818	9492.9357382373
5	93453	29257.566752380209	1222.486906301
5	93470	29262.506902229676	803.69858527906
5	93522	29277.88224962976	1986.9884282231
5	93532	29281.258456971386	806.96654152594
5	93547	29285.602586832159	3964.8510124023
5	93577	29295.622234077828	804.80054902716
5	93619	29308.418617018017	3038.4533562508
5	93624	29310.052664879042	1617.4844818444
5	93637	29314.664507608939	1218.7063137287
5	93650	29319.138189185676	1989.921318351
5	93659	29320.634050759938	407.28036832509
5	93682	29329.499756544348	2720.1557596996
5	93685	29331.078695882004	412.42961834424
5	93702	29335.865867812451	410.0315420122
5	93705	29337.638411269229	808.05682110155
5	93713	29340.592736450661	1623.094160487
5	93733	29347.199092185762	3044.808795648
5	93756	29355.14386648171	1616.4636847565
5	93806	29370.425838176238	1610.8916126168
5	93854	29383.313543475869	3046.7249641158
5	93931	29407.130919159653	1988.9885265064
5	93936	29408.563741369063	1611.3424653106
5	93939	29410.272836213076	1609.6919591328
5	93945	29413.654797827901	1611.812400848
5	93977	29422.56054389708	393.94462033225
5	93999	29429.963979218791	397.90013782748
5	94011	29433.284649022	798.57661290176
5	94031	29439.979094844201	3379.4104166389
5	94034	29441.472997896635	1997.9393777542
5	94045	29445.777460053825	3379.9088532504
5	94099	29462.475239772239	403.41697435843
5	94217	29494.700704467931	404.98523983877
5	94273	29513.129372935819	1226.334748684
5	94300	29520.7808473409	1624.7825686681
5	94319	29524.997754248681	400.55019188146
5	94322	29526.815821038077	2749.9703999881
5	94337	29531.837729268412	399.40399133902
5	94350	29536.260291135389	1626.669734014
5	94355	29537.739726106528	401.82541931614
5	94397	29550.377402778607	815.0131414026
5	94400	29551.783093766015	410.66116591419
5	94452	29567.872260044222	1229.3760039832
5	94467	29573.320007237872	1229.6387990422
5	94501	29582.471156034884	415.58375167276
5	94541	29591.230239976276	2023.965644288
5	94588	29608.800349963908	1633.9712839662
5	94598	29612.081296897386	412.07823757371
5	94620	29618.275793976788	414.54184788633
5	94627	29620.138716899124	827.62384453673
5	94673	29632.227204762107	2408.6840610304
5	94676	29633.507299905909	2405.4448725794
5	94679	29635.085638181759	824.33586534439
5	94687	29638.868278938798	3116.0512512445
5	94727	29651.837330911389	831.70123763658
5	94747	29658.424603881768	2412.3169400038
5	94791	29671.143896172091	413.48925184964
5	94796	29672.748070657149	2774.4617892443
5	94807	29677.637482320227	1221.382822922
5	94833	29684.003866763495	4063.9970761805
5	94842	29685.456750555232	2769.99879734
5	94894	29700.214731992118	822.2555034959
5	94899	29702.21471010641	1640.7821116334
5	94916	29706.843044899113	823.4951528007
5	94921	29708.718148270331	3442.8667609299
5	94944	29715.680837664462	820.43602729127
5	94947	29717.227874617174	2401.6570585491
5	94965	29723.952442859567	6314.2680288435
5	94971	29727.140964476659	3451.323210087
5	94990	29732.073846839822	2028.5314153555
5	94993	29733.583934784203	1216.2577682763
5	95012	29740.78701178328	1214.0025010665
5	95022	29743.995574492858	408.26440957162
5	95029	29745.640325493262	1215.8985242747
5	95073	29758.205712559903	402.3821254078
5	95104	29766.447105950759	1201.1002530615
5	95134	29775.755542816862	3129.4866253795
5	95156	29782.078812957265	1627.5023891028
5	95181	29789.982661408455	408.29176448821
5	95186	29791.603465304048	2399.9862225717
5	95199	29796.970482103796	2397.0365940824
5	95245	29810.539049358935	411.67165547768
5	95286	29821.48596043893	1208.5732790999
5	95292	29824.900877141663	3136.1290302297
5	95424	29864.962768920596	2404.1088173044
5	95474	29877.899704745869	1628.2241192342
5	95499	29885.569418512556	2026.0636899317
5	95507	29888.678069259498	409.4522491289
5	95517	29891.789266458053	2802.1683808659
5	95522	29893.712430655669	413.2595293541
5	95531	29898.707069178755	3500.3632332588
5	95546	29903.635404782082	412.08166776803
5	95563	29908.005893258277	1228.2231682813
5	95593	29917.264550421473	1229.7908765875
5	95628	29929.03639999879	1234.412493748
5	95662	29939.114845104976	1235.0558847376
5	95670	29941.770412670163	4146.0780722535
5	95701	29952.584725706925	4442.9677009604
5	95723	29959.502464314451	6121.0262266393
5	95731	29962.808439858345	823.04277452985
5	95743	29966.380806538736	826.40296064942
5	95758	29970.603040631761	819.91616728865
5	95765	29972.116647487407	2807.0298203967
5	95793	29981.342068896717	409.15012187612
5	95807	29985.294387415885	829.97504352738
5	95825	29991.646476354166	3169.5128856969
5	95838	29996.412613192103	414.41427262309
5	95850	29999.577100461065	833.83946527895
6	92	80.54178248097	34.604075718199
6	905	336.896956289528	147.95868731091
6	996	365.641165382571	91.059873805271
6	1036	378.382537879393	73.818063990071
6	1352	478.013114225277	179.09992867107
6	1406	496.912660714956	363.51608785868
6	1477	517.127159469733	226.16986767283
6	1521	530.009336295323	104.60765040021
6	1540	537.995122474404	277.00802663736
6	1561	545.835584298679	30.605087406372
6	1592	557.43843044226	49.561027629762
6	1645	574.247085848237	61.927345058084
6	1658	579.625503692563	210.15692242358
6	1689	590.050202346567	60.633681218037
6	1697	593.28300692511	9.233186210316
6	1732	605.53961243629	173.97534740247
6	1735	607.507401622641	38.259876995705
6	1749	611.406767717118	444.88851053367
6	1765	623.318366649305	543.74244626876
6	1852	649.093662417063	19.418653559817

