version 2
run Third_exit_5-2-20191023-00:20:17-5278
attr configname Third_exit_5
attr datetime 20191023-00:20:17
attr experiment Third_exit_5
attr inifile omnetpp.ini
attr iterationvars ""
attr iterationvarsf ""
attr measurement ""
attr network ResponseTimeNetwork
attr processid 5278
attr repetition 2
attr replication #2
attr resultdir results
attr runnumber 2
attr seedset 2
param **.Source.interArrivalTime exponential(6s)
param **.jobPriority bernoulli(0.8)
param **.PS.serviceTimeU1 "uniform(1.2s, 2.0s)"
param **.PS.serviceTimeU2 "uniform(2.4s, 2.8s)"
param **.SS1.serviceTime exponential(1.4s)
param **.SS2.serviceTime exponential(2s)
param **.PS.exitProbability bernoulli(0.5)

vector 0 ResponseTimeNetwork.SS1 queueLength:vector ETV
attr interpolationmode sample-hold
attr title "queue length, vector"
vector 1 ResponseTimeNetwork.SS2 queueLength:vector ETV
attr interpolationmode sample-hold
attr title "queue length, vector"
vector 2 ResponseTimeNetwork.QueueU1 queueLength:vector ETV
attr interpolationmode sample-hold
attr title "queue length, vector"
vector 3 ResponseTimeNetwork.QueueU2 queueLength:vector ETV
attr interpolationmode sample-hold
attr title "queue length, vector"
vector 4 ResponseTimeNetwork.sink lifeTimeU1:vector ETV
attr interpolationmode none
attr title "lifetime of arrived jobs U1, vector"
attr unit s
vector 5 ResponseTimeNetwork.sink lifeTime:vector ETV
attr interpolationmode none
attr title "lifetime of arrived jobs, vector"
attr unit s
vector 6 ResponseTimeNetwork.sink lifeTimeU2:vector ETV
attr interpolationmode none
attr title "lifetime of arrived jobs U2, vector"
attr unit s
0	0	0	0
0	47	17.98462820481	1
0	49	19.041233555286	0
0	83	27.495150019036	1
0	85	28.161262999769	0
0	215	127.218429462094	1
0	216	128.216393160764	0
0	220	129.426807031166	1
0	221	130.041695833814	0
0	225	131.412042427485	1
0	226	132.276860356678	0
0	270	162.107274496932	1
0	271	162.534976056281	0
0	737	400.26118610294	1
0	740	401.804856995655	2
0	746	404.083363999877	1
0	750	405.563942832019	2
0	751	405.844330007028	1
0	754	406.476357603047	0
0	861	470.352135973228	1
0	863	471.524074933993	0
0	876	475.349712312026	1
0	878	475.713081983919	0
0	888	477.889074082291	1
0	893	479.935791670175	0
0	929	492.352702629743	1
0	931	493.295981686438	0
0	961	501.527834415053	1
0	964	502.998849323754	2
0	966	503.674548337413	1
0	968	504.424355456188	0
0	1050	536.1651378723	1
0	1051	537.033386736566	0
0	1060	540.565232595073	1
0	1061	541.090789154404	0
0	1065	542.370883612381	1
0	1066	542.802270322575	0
0	1095	552.758357013858	1
0	1096	553.506732843388	0
0	1112	558.635691307057	1
0	1116	559.652763429831	0
0	1119	560.048992021513	1
0	1124	561.809560048387	0
0	1145	569.126286799405	1
0	1146	570.427920420351	0
0	1440	809.211814316994	1
0	1441	809.569625017607	0
0	1470	825.272248379718	1
0	1471	826.329317995329	0
0	1675	932.125426418169	1
0	1676	932.433839304549	0
0	1707	949.709487195934	1
0	1709	950.79618703061	0
0	1875	1119.172305414135	1
0	1876	1119.4916054269	0
0	1899	1126.054921223565	1
0	1901	1126.789087084058	0
0	2045	1203.791695466167	1
0	2046	1205.218386957789	0
0	2059	1208.404228962208	1
0	2064	1210.912650715395	0
0	2140	1245.909676589162	1
0	2144	1246.255514222392	0
0	2157	1251.07106428422	1
0	2160	1252.846335699744	2
0	2161	1253.565752083852	1
0	2164	1254.898734875932	0
0	2167	1255.528270734145	1
0	2171	1255.940075037263	0
0	2176	1256.816947601407	1
0	2179	1258.305512639738	2
0	2181	1259.913253953911	1
0	2184	1260.226071003682	2
0	2186	1260.59602387855	1
0	2189	1261.550679788223	2
0	2192	1262.820684943019	3
0	2197	1264.081084711148	4
0	2199	1264.725079424665	3
0	2201	1264.822697113451	2
0	2203	1265.100026076091	1
0	2205	1265.128522647497	0
0	2211	1267.131630397632	1
0	2214	1269.084701878435	2
0	2219	1270.652294836982	3
0	2221	1270.773597650198	2
0	2231	1275.252516850395	1
0	2236	1275.895606564805	0
0	2342	1337.197614376328	1
0	2346	1337.604714492967	0
0	2366	1343.34668680419	1
0	2368	1344.541769060527	0
0	2470	1395.457356073843	1
0	2471	1395.503066371416	0
0	2487	1400.57787271965	1
0	2489	1401.258032046075	0
0	2492	1402.446424565126	1
0	2495	1403.647963722271	2
0	2496	1404.654713571071	1
0	2499	1405.044799914309	0
0	2537	1417.421836160121	1
0	2551	1422.193144120602	0
0	2559	1424.710858663223	1
0	2567	1427.599221408605	2
0	2569	1427.977667929966	1
0	2571	1428.039697822101	0
0	2805	1608.669892834899	1
0	2809	1608.785588409731	0
0	2843	1617.689431019993	1
0	2845	1618.290771795625	0
0	2992	1708.743951364668	1
0	2996	1709.299691223221	0
0	3054	1742.394048213087	1
0	3056	1742.564549401544	0
0	3084	1751.481558995196	1
0	3087	1753.180365543873	2
0	3089	1754.064549926657	1
0	3092	1754.473930374966	2
0	3094	1754.61328059727	1
0	3101	1757.531882015493	0
0	3120	1761.196636069067	1
0	3125	1763.152365424739	0
0	3672	2132.618482458054	1
0	3674	2132.703953433309	0
0	3939	2341.220986500049	1
0	3941	2342.095922750572	0
0	3944	2342.573466597164	1
0	3948	2343.650714213133	0
0	3970	2352.065484151655	1
0	3971	2352.578489400445	0
0	3975	2354.029693002252	1
0	3976	2356.826923896876	0
0	4052	2416.130361173514	1
0	4054	2416.787413716382	0
0	4354	2614.232714592099	1
0	4361	2617.930196936541	0
0	4442	2641.472648219318	1
0	4444	2641.957779429846	0
0	4447	2643.384376978242	1
0	4449	2643.507505559834	0
0	4454	2644.610678620936	1
0	4457	2646.075320214891	2
0	4459	2646.538179252182	1
0	4462	2647.849595355542	2
0	4464	2647.972809282146	1
0	4472	2649.007415519132	0
0	4485	2652.507816393973	1
0	4487	2652.943746353047	0
0	4527	2665.065443826395	1
0	4530	2666.727456289272	2
0	4532	2667.278466869292	1
0	4537	2669.268201599614	0
0	4540	2670.041977016929	1
0	4542	2671.045588537872	0
0	4555	2674.889547892961	1
0	4559	2675.14134391107	0
0	4827	2815.719507485173	1
0	4829	2816.824950187598	0
0	4884	2833.003093285403	1
0	4886	2833.930267694219	0
0	4904	2839.079295189223	1
0	4906	2839.921048878556	0
0	4917	2843.943304429121	1
0	4919	2844.008749196807	0
0	4997	2885.268119574211	1
0	4999	2886.97081875248	0
0	5002	2887.217011518835	1
0	5006	2887.477578931319	0
0	5009	2888.802601795888	1
0	5011	2888.841442053158	0
0	5014	2890.300096680655	1
0	5016	2890.366534905731	0
0	5019	2892.00808846826	1
0	5024	2893.949465369993	0
0	5155	2943.277018647061	1
0	5159	2944.186882496779	0
0	5202	2955.453597572185	1
0	5208	2958.490492835194	2
0	5210	2959.355915091348	1
0	5212	2960.186770884645	0
0	5279	2983.440191553088	1
0	5281	2984.524350724698	0
0	5332	3000.884182149214	1
0	5336	3002.253749896871	0
0	5344	3003.801371676517	1
0	5346	3004.323453191527	0
0	5359	3008.603007939873	1
0	5363	3009.381336459904	0
0	5366	3010.125048625512	1
0	5369	3011.45545075093	2
0	5371	3012.580839853691	1
0	5374	3013.109729730753	2
0	5376	3014.153580796987	1
0	5381	3014.974150269834	0
0	5447	3037.11090382621	1
0	5449	3037.668735792184	0
0	5610	3126.170161594263	1
0	5611	3126.247737148023	0
0	5777	3234.384685343564	1
0	5781	3236.281590072988	0
0	6067	3383.772968491156	1
0	6069	3384.773634616885	0
0	6074	3385.149563685049	1
0	6078	3385.733629554257	0
0	6266	3547.43455855656	1
0	6268	3547.638486671777	0
0	6294	3556.952523969631	1
0	6296	3557.565178211667	0
0	6299	3558.526406046148	1
0	6301	3559.089384596634	0
0	6605	3755.394167000309	1
0	6609	3756.506863238922	0
0	6770	3840.728497664845	1
0	6774	3841.614378449702	0
0	6800	3852.071778194572	1
0	6801	3853.616526435549	0
0	6986	3955.686038513212	1
0	6996	3958.827527660234	2
0	6998	3959.407593416116	1
0	7003	3962.109330768573	0
0	7006	3962.223296589507	1
0	7008	3962.367473837087	0
0	7535	4365.325454613712	1
0	7536	4368.133704029666	0
0	7587	4384.10703654372	1
0	7592	4386.001605679922	2
0	7594	4386.486328451247	1
0	7596	4386.978318598158	0
0	7631	4397.295347184397	1
0	7635	4398.995621210591	0
0	7638	4399.193211380474	1
0	7640	4399.902102454422	0
0	7726	4429.395309388345	1
0	7738	4433.113371556804	0
0	7743	4434.086871774574	1
0	7753	4437.02429599919	2
0	7755	4437.916498005926	1
0	7760	4438.760626985722	0
0	7823	4459.122327694377	1
0	7825	4459.249506962646	0
0	8085	4576.549400641244	1
0	8086	4576.927193986457	0
0	8400	4792.258540289139	1
0	8401	4792.361118713736	0
0	8405	4794.199334696464	1
0	8406	4794.286323145675	0
0	8472	4828.365261033543	1
0	8474	4829.496115957439	0
0	8505	4844.016719157875	1
0	8506	4844.228455975257	0
0	8525	4850.9266775999	1
0	8540	4853.081738513025	0
0	8562	4863.327920712332	1
0	8564	4863.854535910315	0
0	8784	4970.300338220771	1
0	8787	4971.546721502196	2
0	8789	4971.854179749207	1
0	8791	4972.441450982551	0
0	8826	4982.075352076989	1
0	8828	4982.267931629586	0
0	8841	4987.069526375447	1
0	8843	4988.195505161554	0
0	8846	4988.374883992587	1
0	8848	4988.912171345138	0
0	8867	4996.514557681035	1
0	8871	4997.075100141407	0
0	8880	5001.866972733278	1
0	8881	5002.45649933717	0
0	8940	5037.662679832929	1
0	8941	5038.250246961236	0
0	8985	5053.520146058981	1
0	8991	5055.665696464085	0
0	9017	5063.780349293888	1
0	9021	5067.371578317235	0
0	9127	5133.792697703001	1
0	9129	5133.806368347535	0
0	9532	5342.910770744348	1
0	9534	5344.08134246052	0
0	9610	5382.750243156992	1
0	9611	5383.196095965255	0
0	10199	5849.970632020373	1
0	10201	5851.231095775951	0
0	10255	5869.345858246822	1
0	10256	5870.062329205497	0
0	10269	5873.641425165906	1
0	10271	5873.80917408901	0
0	10335	5901.330472744286	1
0	10336	5902.054715897783	0
0	10347	5905.599526298686	1
0	10351	5908.174961971451	0
0	10360	5910.977083290887	1
0	10366	5914.505697684097	0
0	10520	6011.119123825485	1
0	10521	6011.497777559751	0
0	10665	6122.463005101415	1
0	10666	6122.920559789683	0
0	10785	6189.441455355477	1
0	10786	6190.687172310396	0
0	11250	6468.630228192782	1
0	11251	6473.602273554124	0
0	11367	6526.53461420015	1
0	11369	6526.573806315046	0
0	11587	6669.958500588783	1
0	11589	6670.109032916312	0
0	11595	6672.985584703558	1
0	11596	6674.941675270205	0
0	11600	6676.494248490823	1
0	11609	6681.4637564538	0
0	11659	6698.016068448175	1
0	11661	6698.547607890612	0
0	11669	6701.328540626776	1
0	11671	6701.580979601232	0
0	11674	6702.561677136694	1
0	11678	6704.060299390831	0
0	11714	6713.926063473945	1
0	11718	6714.888026437345	0
0	11726	6717.448293329639	1
0	11728	6718.465817898157	0
0	11731	6718.84542798852	1
0	11734	6720.537530339932	2
0	11736	6720.55658043589	1
0	11738	6721.225908947973	0
0	11830	6757.542194535355	1
0	11838	6761.383205339177	0
0	11841	6761.920324523626	1
0	11843	6762.377112977153	0
0	11984	6844.01003194961	1
0	11986	6844.031357647985	0
0	11989	6845.786204418608	1
0	11991	6846.311118331799	0
0	12045	6876.018993129803	1
0	12046	6877.454709825243	0
0	12079	6888.9622396678	1
0	12081	6890.262833622077	0
0	12241	7003.205377951101	1
0	12243	7003.418938147345	0
0	12272	7013.878424646355	1
0	12276	7016.201992491425	0
0	12312	7035.618232049169	1
0	12314	7036.300377155056	0
0	12344	7045.087931951629	1
0	12347	7047.049837361583	2
0	12351	7050.510577025916	1
0	12354	7051.408660605742	0
0	12357	7052.321058192569	1
0	12359	7052.95090148318	0
0	12362	7053.990777954179	1
0	12366	7055.405613841387	0
0	12547	7181.938687256722	1
0	12556	7187.138837807837	0
0	12603	7200.955711118345	1
0	12605	7201.033232156499	0
0	12801	7283.039283930708	1
0	12803	7283.24430175217	0
0	12808	7284.669617051829	1
0	12810	7286.346799395488	0
0	12849	7299.264103841978	1
0	12854	7301.341709678116	0
0	13375	7629.611115062578	1
0	13376	7631.302392711941	0
0	13455	7685.57999615061	1
0	13456	7686.591669580473	0
0	13470	7690.917454021185	1
0	13471	7693.188777158488	0
0	13707	7882.735283422246	1
0	13709	7883.002748720971	0
0	13797	7923.083996133812	1
0	13801	7923.288648194324	0
0	13876	7947.837244057216	1
0	13880	7949.062195181147	0
0	13899	7955.649587167732	1
0	13902	7957.193509164013	2
0	13911	7963.104725192371	1
0	13916	7963.492905888395	0
0	14025	8074.855438068909	1
0	14026	8078.449011275983	0
0	14037	8081.556664594887	1
0	14039	8082.498320196251	0
0	14067	8101.436266040683	1
0	14069	8102.593894680865	0
0	14072	8102.809714181975	1
0	14074	8104.019395744968	0
0	14080	8105.848255403593	1
0	14084	8106.077990067777	0
0	14087	8107.748367733172	1
0	14091	8109.057683900432	0
0	14094	8109.417690748385	1
0	14096	8109.658547279239	0
0	14131	8121.288162328525	1
0	14133	8122.512612070793	0
0	14428	8260.945175307351	1
0	14436	8264.949785125855	0
0	14574	8323.086302837623	1
0	14576	8323.648193754866	0
0	14579	8324.313916321551	1
0	14582	8326.206999776406	2
0	14584	8327.717303826765	1
0	14587	8328.127137882901	2
0	14596	8329.579483293263	3
0	14601	8331.687163695874	2
0	14606	8333.37283346852	1
0	14611	8333.837514621509	0
0	14619	8336.678801854034	1
0	14626	8339.570676974044	0
0	14629	8339.693767404822	1
0	14631	8340.42754651181	0
0	14636	8341.457893140693	1
0	14640	8342.823459284617	0
0	14654	8348.536330367145	1
0	14656	8348.549653366899	0
0	14840	8423.675346885684	1
0	14841	8424.455782903511	0
0	14900	8466.529024176628	1
0	14901	8467.173556849638	0
0	14939	8477.650218406782	1
0	14944	8480.018875335484	0
0	14957	8484.175122567915	1
0	14959	8485.089049246698	0
0	15054	8535.579349107247	1
0	15057	8537.396003227446	2
0	15063	8538.09579141344	1
0	15070	8539.47956630484	0
0	15088	8544.934021057513	1
0	15090	8546.281932270828	0
0	15116	8554.451871769455	1
0	15121	8556.656155357387	0
0	15174	8572.025202999963	1
0	15186	8576.296966433915	0
0	15189	8577.539841937573	1
0	15191	8577.693561466419	0
0	15315	8626.701262526821	1
0	15319	8629.42370873358	0
0	15322	8629.72496878705	1
0	15329	8633.141440981252	0
0	15379	8648.608619785416	1
0	15382	8650.153837892707	2
0	15384	8651.708025416915	1
0	15389	8652.579474324086	0
0	15392	8653.407677577357	1
0	15399	8655.150096391579	0
0	15596	8774.770438412214	1
0	15598	8775.78756344701	0
0	15601	8776.309686771417	1
0	15603	8777.160343428513	0
0	15822	8882.332446031573	1
0	15824	8883.924790268408	0
0	15857	8912.446435059494	1
0	15859	8913.428431067444	0
0	15862	8914.235483046694	1
0	15864	8914.416921388758	0
0	15875	8918.276408982536	1
0	15876	8918.368705135101	0
0	15887	8921.210825754964	1
0	15891	8923.788896353589	0
0	16031	8989.678759720994	1
0	16035	8990.239221636322	0
0	16053	8995.867016401774	1
0	16055	8996.297669530662	0
0	16719	9372.402819592958	1
0	16721	9372.644572791322	0
0	16790	9396.508798669546	1
0	16795	9399.277150405274	2
0	16796	9399.439530321772	1
0	16804	9401.64739026104	0
0	16838	9410.767617396641	1
0	16840	9412.007606973486	0
0	16888	9427.205315513354	1
0	16890	9427.433307322164	0
0	17115	9569.231955970504	1
0	17116	9569.334901195096	0
0	17137	9576.096688839497	1
0	17139	9576.607167631842	0
0	17142	9577.520917003864	1
0	17144	9578.294501539433	0
0	17190	9609.273810020148	1
0	17191	9611.421342654605	0
0	17503	9753.392251682613	1
0	17507	9754.56283657895	0
0	17510	9754.939339872967	1
0	17512	9755.99659984489	0
0	17515	9756.277919287938	1
0	17517	9756.31958724378	0
0	17540	9764.236656980547	1
0	17542	9765.028574727757	0
0	17662	9851.77717565887	1
0	17671	9854.097216336114	0
0	17694	9860.551644276383	1
0	17696	9861.369089230103	0
0	17706	9863.714076700362	1
0	17709	9865.199281173127	2
0	17712	9866.730675645845	3
0	17716	9868.518151887711	2
0	17721	9869.569528805609	1
0	17726	9870.158620771225	2
0	17728	9871.255598768345	1
0	17730	9871.321342979961	0
0	17733	9871.753108925577	1
0	17736	9873.589616564493	2
0	17738	9874.457315606094	1
0	17741	9874.978951583634	2
0	17743	9875.045308431494	1
0	17745	9876.323365772909	0
0	17763	9881.845340681839	1
0	17766	9883.359725126828	2
0	17768	9884.370614176787	1
0	17771	9884.882665650005	2
0	17776	9887.500430401416	1
0	17781	9888.36323529686	0
0	17795	9893.637730627897	1
0	17796	9894.366784390995	0
0	17820	9904.247482025745	1
0	17821	9904.597302853811	0
0	17827	9905.862031850341	1
0	17829	9907.406007868472	0
0	17832	9907.776591820765	1
0	17834	9908.93337780818	0
0	17837	9909.288664835814	1
0	17839	9910.096084735754	0
0	17940	9994.807227324815	1
0	17941	9995.027223427614	0
0	18000	10047.903578309728	1
0	18001	10048.719480430782	0
0	18035	10064.609504952049	1
0	18036	10064.803025755831	0
0	18052	10069.506326321126	1
0	18061	10071.842727260254	0
0	18109	10087.993494385839	1
0	18111	10089.884426976605	0
0	18117	10091.545512508586	1
0	18119	10092.480790271577	0
0	18137	10097.75631940829	1
0	18139	10097.986868179992	0
0	18202	10132.960806983889	1
0	18204	10132.989896909081	0
0	18222	10139.072507918992	1
0	18224	10139.143956754803	0
0	19251	10839.970505923818	1
0	19254	10841.391386655572	2
0	19258	10842.783728436936	1
0	19271	10847.116206474247	0
0	19542	11027.137288736281	1
0	19546	11029.03064958432	0
0	19745	11150.192559871363	1
0	19746	11150.408284172334	0
0	19754	11152.398467761941	1
0	19759	11153.848322294757	2
0	19761	11155.095446790234	1
0	19764	11155.666473030031	2
0	19766	11156.818256677527	1
0	19769	11156.925526280061	2
0	19771	11158.167603471813	1
0	19776	11158.905621779445	0
0	19781	11160.327455097728	1
0	19783	11160.758817648574	0
0	19786	11161.607592097216	1
0	19788	11162.038840492787	0
0	19845	11178.316825290875	1
0	19847	11178.634585375417	0
0	20064	11291.440389052564	1
0	20068	11292.478467740637	0
0	20071	11293.294220563927	1
0	20073	11293.721868899583	0
0	20102	11304.742651058705	1
0	20106	11306.872340631991	0
0	20337	11482.3695463359	1
0	20339	11482.541386128079	0
0	20404	11543.938268401842	1
0	20406	11544.838020303103	0
0	20409	11545.672578308168	1
0	20414	11547.81757353044	0
0	20417	11548.370459881235	1
0	20421	11550.213756808842	0
0	20425	11551.64788859004	1
0	20426	11551.959916731936	0
0	20545	11630.248838341063	1
0	20556	11638.929992894303	0
0	20590	11662.140658864505	1
0	20591	11663.061407359629	0
0	20657	11696.737185665382	1
0	20659	11697.802260428909	0
0	20662	11698.182600527791	1
0	20664	11699.290523536003	0
0	20667	11700.107553959055	1
0	20669	11701.763903985149	0
0	20675	11703.582772965891	1
0	20681	11705.978654333219	0
0	20701	11711.277736157355	1
0	20704	11712.783602369753	2
0	20707	11714.068176161115	3
0	20709	11714.790432760176	2
0	20711	11715.330423346081	1
0	20713	11715.528419685007	0
0	20895	11808.614707054202	1
0	20896	11808.903938192029	0
0	20922	11822.941645560723	1
0	20924	11823.887257995003	0
0	20970	11845.295644985331	1
0	20971	11847.613323261978	0
0	21035	11878.101459378162	1
0	21036	11878.130822111673	0
0	21286	12063.047393540098	1
0	21288	12064.133590293478	0
0	21291	12064.392007688797	1
0	21293	12064.997154438978	0
0	21296	12065.679493477746	1
0	21298	12065.95166759528	0
0	21301	12067.241732598088	1
0	21303	12068.693620137261	0
0	21306	12069.167670791402	1
0	21310	12070.91284740149	0
0	21313	12071.120739126756	1
0	21318	12073.243675702309	0
0	21341	12081.204482429652	1
0	21343	12081.944190722738	0
0	22337	12663.597627934812	1
0	22339	12663.706544985953	0
0	22820	13016.390626955244	1
0	22824	13017.99910047981	0
0	22861	13027.931624949223	1
0	22863	13027.948342350476	0
0	22982	13070.644890171035	1
0	22984	13071.111373391872	0
0	22987	13072.188119253262	1
0	22989	13072.405425286048	0
0	22992	13073.552279476381	1
0	22995	13074.988133054904	2
0	22996	13075.80868541609	1
0	23001	13077.664080583383	0
0	23044	13095.406595177134	1
0	23046	13096.105921811077	0
0	23535	13408.386571261493	1
0	23536	13411.341756088521	0
0	23540	13412.943706956368	1
0	23541	13416.055557809773	0
0	23545	13417.464267866316	1
0	23546	13418.657154421235	0
0	23727	13545.896732100932	1
0	23729	13546.596846943718	0
0	23735	13548.396991050145	1
0	23736	13549.605189849609	0
0	24144	13837.248695096939	1
0	24146	13837.306491733127	0
0	24152	13840.792228003226	1
0	24156	13842.470304537436	0
0	24162	13844.429576643987	1
0	24166	13845.043394006581	0
0	24177	13848.777246063632	1
0	24179	13848.875151814266	0
0	24407	14041.523961096446	1
0	24416	14047.46354454121	0
0	24480	14094.426817040254	1
0	24481	14095.483457897788	0
0	24492	14098.067176159097	1
0	24499	14100.512052760557	0
0	24509	14103.832075175342	1
0	24511	14105.18327841543	0
0	24514	14105.220555942018	1
0	24516	14105.312825955237	0
0	24637	14195.611242310969	1
0	24641	14198.259629029501	0
0	24702	14223.02455209336	1
0	24706	14226.512912291741	0
0	24710	14228.330190748056	1
0	24711	14229.422621101353	0
0	24764	14246.354405512094	1
0	24769	14247.564979610398	2
0	24774	14249.382033562652	3
0	24776	14250.408265736903	2
0	24781	14251.100999289538	1
0	24786	14252.80277105774	2
0	24789	14254.604361343004	3
0	24791	14254.763333613826	2
0	24796	14256.394536805704	3
0	24798	14257.225809164192	2
0	24801	14258.058574952736	3
0	24803	14258.121145872956	2
0	24805	14258.986123187661	1
0	24812	14260.503400081395	0
0	24827	14265.824497749276	1
0	24830	14267.226870367668	2
0	24832	14268.949992167294	1
0	24835	14269.030285276278	2
0	24841	14270.876796093542	1
0	24844	14270.998245504118	2
0	24846	14271.228715089061	1
0	24848	14271.706414023571	0
0	24851	14272.88364460393	1
0	24853	14273.693404491977	0
0	24867	14278.90292225889	1
0	24869	14280.247365019792	0
0	24875	14282.150355410753	1
0	24878	14283.972151121674	2
0	24897	14290.686904696636	1
0	24900	14290.700982691339	2
0	24907	14294.044373751104	1
0	24909	14294.413281245209	0
0	24972	14343.50386272494	1
0	24974	14343.964311081653	0
0	25002	14354.061915198269	1
0	25004	14354.634148817993	0
0	25175	14507.144798482307	1
0	25176	14507.199798965675	0
0	25375	14636.923453383041	1
0	25379	14638.193370914499	0
0	25466	14704.114019778443	1
0	25468	14705.215292515159	0
0	25790	14874.085108891085	1
0	25791	14875.934311846608	0
0	25825	14892.278530277414	1
0	25829	14893.221794842424	0
0	25832	14894.042103119814	1
0	25834	14894.967404192809	0
0	25837	14896.002781728716	1
0	25839	14896.240367710156	0
0	25929	14924.027931231967	1
0	25934	14926.299435056181	0
0	26079	15035.510761125103	1
0	26081	15035.763468764899	0
0	26156	15059.868978459666	1
0	26158	15060.155006156856	0
0	26203	15074.986423539834	1
0	26205	15075.276006027596	0
0	26437	15174.928665974293	1
0	26439	15175.66469203824	0
0	26454	15179.479202386853	1
0	26456	15179.646206040639	0
0	26675	15283.963022506663	1
0	26677	15284.616305151901	0
0	26695	15290.987844317646	1
0	26697	15291.521221677316	0
0	26723	15300.600778058224	1
0	26730	15302.844077241886	0
0	26775	15316.70603804072	1
0	26777	15317.517357721022	0
0	26792	15320.847059855476	1
0	26794	15321.694537966161	0
0	26920	15382.272018655352	1
0	26921	15382.685669888532	0
0	26925	15384.343505556857	1
0	26926	15384.428454855117	0
0	27100	15471.044685007558	1
0	27101	15473.372358777127	0
0	27445	15635.560189326923	1
0	27446	15635.849844373233	0
0	27839	15902.528233575052	1
0	27841	15903.239401508495	0
0	27871	15911.535901232971	1
0	27873	15912.284342945902	0
0	27876	15912.776579615077	1
0	27878	15913.934702703547	0
0	27881	15914.042170238098	1
0	27885	15915.010241683659	0
0	27888	15915.547858682064	1
0	27890	15915.699669423123	0
0	27896	15918.260473684756	1
0	27898	15919.608305118371	0
0	27995	15951.865892862536	1
0	27996	15952.181919561537	0
0	28004	15954.160650082888	1
0	28009	15955.362177665928	2
0	28011	15955.408662449396	1
0	28014	15957.089350153902	2
0	28016	15957.543529132677	1
0	28018	15957.856160308175	0
0	28399	16184.3512945404	1
0	28401	16184.423607988229	0
0	28407	16187.515252840678	1
0	28409	16187.541857421749	0
0	28422	16192.02149459512	1
0	28424	16192.087515825316	0
0	28440	16198.878173057929	1
0	28441	16199.455770862788	0
0	28480	16214.570911310527	1
0	28481	16215.590241114754	0
0	28705	16361.343951859552	1
0	28706	16361.696942857008	0
0	28785	16437.972254424604	1
0	28790	16440.90775557164	2
0	28791	16440.923557698101	1
0	28794	16441.24769363214	0
0	28804	16444.55682816387	1
0	28806	16444.80860933745	0
0	28945	16546.039058806386	1
0	28946	16546.436310490324	0
0	28957	16549.274146220005	1
0	28959	16549.939998529159	0
0	28974	16554.665373327873	1
0	28976	16555.164076468191	0
0	28989	16560.073203065536	1
0	28991	16561.184856076893	0
0	29024	16570.722410971961	1
0	29028	16571.179610625429	0
0	29132	16610.002335888707	1
0	29136	16611.66806320707	0
0	29249	16672.265683119684	1
0	29252	16673.644532384291	2
0	29254	16675.210200555958	1
0	29257	16675.59883792562	2
0	29265	16680.742590928057	3
0	29266	16681.24143603238	2
0	29269	16681.869358138804	1
0	29271	16682.03461514542	0
0	29407	16743.938375548554	1
0	29411	16745.630550350217	0
0	29532	16818.907825391679	1
0	29536	16821.756712513481	0
0	29650	16879.53800209492	1
0	29651	16881.230964370209	0
0	29679	16889.210167134318	1
0	29682	16891.209342566456	2
0	29687	16893.073808926109	3
0	29691	16894.358417205725	2
0	29693	16894.588130910234	1
0	29696	16894.938540852766	2
0	29698	16895.377228399476	1
0	29701	16896.817699655096	2
0	29703	16896.830959804072	1
0	29705	16898.110926148663	0
0	29731	16905.667630860347	1
0	29733	16907.473380745936	0
0	29763	16915.844047156672	1
0	29766	16917.365444928358	2
0	29769	16918.567867528598	3
0	29771	16918.956109302575	2
0	29773	16918.998579813018	1
0	29779	16921.407923487897	2
0	29781	16922.128932088682	1
0	29783	16922.148672847648	0
0	29959	17022.473457076966	1
0	29966	17024.498207001978	0
0	29985	17028.967840500369	1
0	29987	17029.22483191882	0
0	30185	17098.657637148226	1
0	30186	17099.205805807994	0
0	30199	17102.696486581364	1
0	30201	17103.794014905366	0
0	30396	17196.107590771831	1
0	30398	17196.228794102274	0
0	30403	17198.073089503675	1
0	30409	17199.465587398399	0
0	30420	17202.9747008752	1
0	30422	17204.02682725288	0
0	30425	17204.306827335797	1
0	30430	17206.045655511871	0
0	30433	17207.105342542745	1
0	30435	17207.469944673584	0
0	31072	17585.113763359841	1
0	31076	17586.572651830099	0
0	31140	17624.2000497834	1
0	31141	17624.657094584927	0
0	31236	17715.653577847774	1
0	31240	17716.714629307965	0
0	31350	17781.985329026913	1
0	31354	17784.680487084735	0
0	31699	17986.295577389479	1
0	31702	17987.621218390867	2
0	31704	17987.763712639017	1
0	31709	17989.067615607299	2
0	31712	17990.451862457499	3
0	31714	17990.746827184713	2
0	31719	17991.666880555928	3
0	31721	17992.491613549414	2
0	31728	17993.586636535063	1
0	31730	17994.042347772156	0
0	31775	18007.03559158343	1
0	31780	18008.771853999315	0
0	31798	18015.508047740079	1
0	31805	18017.357607031743	0
0	31808	18018.279150635295	1
0	31810	18019.27862476594	0
0	31813	18019.886958547973	1
0	31815	18019.983785524823	0
0	31922	18102.840451534641	1
0	31924	18103.730343525996	0
0	31944	18110.081952256327	1
0	31946	18110.372393043892	0
0	32040	18204.763374588816	1
0	32044	18205.92105987799	0
0	32090	18257.095357561483	1
0	32091	18257.357082658351	0
0	32165	18295.611358234628	1
0	32169	18298.628824438865	0
0	32187	18303.853408725632	1
0	32189	18304.727360926894	0
0	32192	18305.542123484125	1
0	32201	18308.556073149444	0
0	32385	18502.652109019776	1
0	32386	18502.696747271239	0
0	32392	18503.937481884553	1
0	32394	18504.660065048912	0
0	32451	18521.850718664087	1
0	32461	18526.661526599464	0
0	32612	18629.298179031089	1
0	32619	18630.621682817281	0
0	32622	18632.032997738868	1
0	32624	18632.2567129149	0
0	32627	18633.334030878469	1
0	32632	18634.851411285363	2
0	32636	18636.226924590017	1
0	32646	18639.443301691284	0
0	32654	18641.8603101192	1
0	32656	18642.20634563876	0
0	32827	18712.217353492686	1
0	32830	18713.838453285666	2
0	32831	18716.566698130117	1
0	32835	18717.91291388207	2
0	32836	18718.047733516416	1
0	32839	18719.491018061239	0
0	32844	18719.877187797038	1
0	32851	18722.120303687678	0
0	32859	18725.142353607511	1
0	32861	18725.158385128469	0
0	33012	18818.957469229892	1
0	33014	18819.587740256727	0
0	33190	18937.61573060337	1
0	33191	18937.697510085972	0
0	33295	18996.113529217354	1
0	33296	18996.97701904765	0
0	33317	19002.792679258721	1
0	33320	19004.104240281234	2
0	33321	19004.840887220492	1
0	33324	19005.392228092828	0
0	33382	19034.073823540797	1
0	33384	19035.776837638	0
0	33670	19228.022306323244	1
0	33671	19231.776223742412	0
0	33675	19233.015667508365	1
0	33676	19233.678490202651	0
0	33797	19326.012128110597	1
0	33799	19326.029733232307	0
0	33810	19330.952552760759	1
0	33811	19331.195643215075	0
0	33915	19423.853508439284	1
0	33916	19424.379199217034	0
0	34406	19709.016573024265	1
0	34408	19709.163005368673	0
0	34660	19820.746441023132	1
0	34661	19821.964987875897	0
0	34710	19858.098723264034	1
0	34711	19858.122058065535	0
0	34734	19864.652759172509	1
0	34736	19865.27967950794	0
0	34775	19880.225191502992	1
0	34776	19882.262356307913	0
0	35229	20070.761692854695	1
0	35231	20071.583743978431	0
0	35247	20077.189960594408	1
0	35254	20078.728988723112	0
0	35340	20126.437523961912	1
0	35341	20127.21815196585	0
0	35345	20129.137026638092	1
0	35346	20129.225990383814	0
0	35492	20241.118222187952	1
0	35495	20242.904866330073	2
0	35496	20243.654758635088	1
0	35501	20247.342227461934	0
0	35520	20261.028964365021	1
0	35521	20263.764375280175	0
0	35622	20355.79892168873	1
0	35624	20356.662601274378	0
0	35945	20504.133183118301	1
0	35946	20504.317814396589	0
0	36130	20656.308170581551	1
0	36131	20658.469355005836	0
0	36272	20774.361319055823	1
0	36278	20775.074961159708	0
0	36602	20985.490020888048	1
0	36604	20985.55490713589	0
0	36705	21044.570936976452	1
0	36706	21045.661587189776	0
0	36809	21111.204268822657	1
0	36811	21112.01517529917	0
0	36831	21118.047022920498	1
0	36836	21120.120523342527	0
0	36944	21169.583894946452	1
0	36946	21171.172892096157	0
0	36952	21173.117781448018	1
0	36954	21174.237064669937	0
0	36960	21175.90053085855	1
0	36964	21177.618964120887	0
0	36967	21177.761306878265	1
0	36969	21178.56902800191	0
0	36972	21179.004289007831	1
0	36974	21179.153310954747	0
0	37132	21274.119954764965	1
0	37134	21275.209231819701	0
0	37137	21275.884124901268	1
0	37139	21276.123118462548	0
0	37142	21277.389997539419	1
0	37144	21277.84814995098	0
0	37251	21314.522561558939	1
0	37259	21317.577081382168	0
0	37475	21458.046921861811	1
0	37476	21458.459072859159	0
0	37575	21550.770641604924	1
0	37576	21552.245261489819	0
0	37780	21693.931136597525	1
0	37781	21695.034547123496	0
0	37835	21742.9160518602	1
0	37836	21745.017271280117	0
0	37935	21812.649717757194	1
0	37941	21814.791077182482	0
0	37982	21832.795686858367	1
0	37996	21838.541240460205	0
0	38139	21910.120867411095	1
0	38141	21911.251195195015	0
0	38144	21911.631878885302	1
0	38146	21912.115454078463	0
0	38230	21970.374098992772	1
0	38231	21970.509119210812	0
0	38465	22167.971849889482	1
0	38466	22168.554779733878	0
0	39267	22621.777108664621	1
0	39271	22624.090545417654	0
0	39672	22922.850132234424	1
0	39674	22922.918274037201	0
0	39772	22999.272929816582	1
0	39779	23001.398039588573	0
0	39915	23104.32381256865	1
0	39916	23105.639941532151	0
0	39995	23142.667487728011	1
0	39999	23143.9741697883	0
0	40226	23236.501604445485	1
0	40228	23236.739484978379	0
0	40292	23259.361296538469	1
0	40296	23262.138583425298	0
0	40362	23287.032632036518	1
0	40368	23288.840322268577	0
0	40435	23324.565511764953	1
0	40436	23325.067092298941	0
0	40440	23326.377406944187	1
0	40447	23327.708299540252	2
0	40449	23329.13697666603	1
0	40451	23329.322976836922	0
0	40540	23424.070758864949	1
0	40541	23426.692070591123	0
0	40795	23578.285485563801	1
0	40799	23579.15495108931	0
0	41109	23710.413427264761	1
0	41111	23710.721824824813	0
0	41116	23711.7888180723	1
0	41118	23712.512035547575	0
0	41126	23715.571268280927	1
0	41129	23716.87689041454	2
0	41131	23717.514430073148	1
0	41135	23718.627612630041	0
0	41138	23718.722997443896	1
0	41140	23718.759423064367	0
0	41178	23731.109637605917	1
0	41180	23731.476552407928	0
0	41296	23772.646751382347	1
0	41300	23773.178279866857	0
0	41374	23825.56421993817	1
0	41376	23825.592874220108	0
0	41456	23851.685346971588	1
0	41458	23852.255405485574	0
0	41461	23853.629374836894	1
0	41463	23854.86134291302	0
0	41980	24127.141317253378	1
0	41981	24128.610080354822	0
0	42837	24549.800249765674	1
0	42839	24550.171930603359	0
0	42985	24712.028977594842	1
0	42986	24714.044580435736	0
0	43007	24720.112582397258	1
0	43011	24720.406250305478	0
0	43227	24831.937803954536	1
0	43229	24832.225531615092	0
0	43240	24836.773427155333	1
0	43241	24837.834864145789	0
0	43542	25043.892126068992	1
0	43544	25044.675469881799	0
0	43562	25050.542749519792	1
0	43568	25051.872756549557	0
0	43573	25052.100601856184	1
0	43577	25053.183608943724	0
0	43722	25156.084517913027	1
0	43724	25157.436938743659	0
0	43732	25159.646397635987	1
0	43734	25161.013026856991	0
0	43904	25267.005926275454	1
0	43908	25268.124794146829	0
0	44160	25388.99016044774	1
0	44164	25390.010288630934	0
0	44715	25703.325220515523	1
0	44716	25704.075388733897	0
0	44720	25705.92151171178	1
0	44721	25706.766002769188	0
0	44815	25768.354340662921	1
0	44819	25773.93167881321	0
0	44907	25805.138287605392	1
0	44909	25805.555750848356	0
0	45000	25859.263825416153	1
0	45001	25860.68206768361	0
0	45075	25920.618465256031	1
0	45076	25921.462158229317	0
0	45250	26062.418317914704	1
0	45251	26062.650817114527	0
0	45310	26099.161122941655	1
0	45311	26100.12267217456	0
0	45315	26101.885956378529	1
0	45316	26104.078757125915	0
0	45505	26217.96236118122	1
0	45506	26221.470752970625	0
0	45607	26283.390863339652	1
0	45611	26285.901354914915	0
0	45640	26297.261364111454	1
0	45641	26297.471098079207	0
0	45650	26300.736587852292	1
0	45651	26301.261766028106	0
0	45865	26391.755481677738	1
0	45866	26392.446432126869	0
0	46005	26491.640447586932	1
0	46006	26491.753022934372	0
0	46210	26619.327814110104	1
0	46216	26622.39290436497	0
0	46359	26725.90211269809	1
0	46361	26726.981426123689	0
0	46364	26727.895986604226	1
0	46366	26729.325471452991	0
0	46369	26729.687482385804	1
0	46372	26731.5367114353	2
0	46374	26731.78861656415	1
0	46381	26735.121885750909	0
0	46535	26837.334706969418	1
0	46536	26837.551974564794	0
0	46547	26840.862030573192	1
0	46549	26841.536619819896	0
0	46952	27110.169763613896	1
0	46955	27112.097272518495	2
0	46957	27112.446776575017	1
0	46960	27114.082928551579	2
0	46962	27114.360027845623	1
0	46969	27116.092178438006	0
0	47009	27125.723842717367	1
0	47012	27127.075219685803	2
0	47014	27127.277915521975	1
0	47016	27127.870700002164	0
0	47032	27134.182147220555	1
0	47034	27134.567745738675	0
0	47056	27140.393516550804	1
0	47058	27140.760805987289	0
0	47355	27289.822166062495	1
0	47356	27290.790124790163	0
0	47540	27445.541722104969	1
0	47541	27446.061801994934	0
0	47550	27448.797414402447	1
0	47551	27450.253324110522	0
0	47734	27564.767191785868	1
0	47736	27565.284169890318	0
0	47782	27583.017610175605	1
0	47789	27584.891604482688	0
0	48445	28018.262871046809	1
0	48450	28021.014906260462	2
0	48451	28021.847692377879	1
0	48454	28021.908408465142	0
0	48975	28338.59141286119	1
0	48976	28338.756042984318	0
0	49455	28628.615651356149	1
0	49462	28632.327421623123	2
0	49466	28634.681004383053	1
0	49474	28636.577280709765	0
0	49497	28644.598463984403	1
0	49499	28644.666225247544	0
0	49550	28683.462459265063	1
0	49551	28684.121180294284	0
0	49587	28697.444868347334	1
0	49589	28698.353951276923	0
0	49613	28704.223141670327	1
0	49615	28704.940021316272	0
0	49725	28740.404952542212	1
0	49727	28740.91719112498	0
0	49850	28802.577557446742	1
0	49851	28802.596214575061	0
0	50100	28923.673537816197	1
0	50109	28926.581002424101	0
0	50560	29227.457328510632	1
0	50565	29230.199989593408	2
0	50569	29231.482168808221	1
0	50575	29233.92144965553	2
0	50576	29235.250341408778	1
0	50580	29237.046295004975	2
0	50581	29244.246201253945	1
0	50584	29245.14416267953	0
0	50784	29435.325694693112	1
0	50789	29437.18434695606	2
0	50794	29439.576330842931	1
0	50796	29440.778349551434	0
0	50962	29569.890843074875	1
0	50964	29570.353043949557	0
0	51047	29611.597374470187	1
0	51049	29612.377323886958	0
0	51127	29645.280020050822	1
0	51129	29646.079053309146	0
0	51230	29691.659279040063	1
0	51231	29692.406961665395	0
0	51270	29710.937850246433	1
0	51271	29711.671017704062	0
0	51425	29776.319352251028	1
0	51426	29778.007072657546	0
1	0	0	0
1	625	360.726091269376	1
1	626	361.276866635574	0
1	630	363.061410795419	1
1	631	364.106292493226	0
1	639	365.911492720203	1
1	643	367.359604745819	0
1	2892	1636.290224371414	1
1	2894	1636.729533048101	0
1	4360	2617.901553678133	1
1	4364	2618.221177206518	0
1	4611	2696.2745457818	1
1	4615	2697.057372060659	0
1	4629	2703.417965172344	1
1	4631	2703.841453217364	0
1	5905	3287.559776349046	1
1	5906	3290.730953371744	0
1	6460	3690.569118217245	1
1	6461	3696.444291566722	0
1	6465	3697.983450581729	1
1	6466	3699.967649403984	0
1	6472	3701.428655934358	1
1	6475	3702.640290043714	2
1	6476	3705.370159788803	1
1	6479	3705.541723970875	0
1	6485	3708.106262486801	1
1	6486	3708.956189602164	0
1	6495	3712.586657849809	1
1	6496	3712.660167582546	0
1	7736	4432.547019296033	1
1	7745	4434.938005893951	0
1	7907	4488.394628045044	1
1	7909	4488.742977720419	0
1	7930	4495.896121376461	1
1	7931	4496.236949989796	0
1	7960	4505.510290033781	1
1	7961	4507.769778439734	0
1	8252	4721.66873324963	1
1	8255	4723.352464198346	2
1	8256	4726.466284134781	1
1	8261	4731.205472139314	0
1	8272	4734.434416720875	1
1	8274	4735.737026738124	0
1	8970	5048.63724941314	1
1	8971	5048.65596583664	0
1	9455	5310.675499718301	1
1	9456	5312.814618500259	0
1	9462	5314.22875240029	1
1	9464	5315.559289666743	0
1	9732	5522.601398651636	1
1	9735	5523.926862044967	2
1	9740	5527.694964185941	3
1	9744	5528.592112947536	2
1	9746	5528.814389291033	1
1	9754	5531.666873973051	2
1	9764	5534.826067750139	1
1	9766	5534.988353713074	0
1	9772	5537.911158113742	1
1	9776	5538.187994358809	0
1	11180	6438.863145058396	1
1	11181	6442.740860441629	0
1	11614	6682.5417171123	1
1	11616	6683.267248901039	0
1	14235	8170.404501283591	1
1	14236	8171.589228648311	0
1	18820	10546.423111374714	1
1	18821	10549.387841773507	0
1	19915	11206.163995366212	1
1	19916	11206.637890591503	0
1	19920	11208.467629874156	1
1	19921	11211.35714165953	0
1	19925	11212.716303768503	1
1	19934	11217.211829540473	0
1	22757	12953.594847555769	1
1	22759	12954.006959077127	0
1	22762	12955.396078881373	1
1	22764	12955.440711550385	0
1	24640	14196.837769913008	1
1	24644	14198.27604448939	0
1	25939	14927.544545132629	1
1	25948	14929.458069191932	0
1	26872	15349.142956775665	1
1	26875	15351.122507408313	2
1	26876	15354.324612259915	1
1	26879	15355.348377825518	0
1	26882	15356.077705330638	1
1	26884	15356.8785556747	0
1	27945	15934.906021038045	1
1	27946	15935.153406013741	0
1	28135	16054.459885107815	1
1	28136	16054.516026357681	0
1	29047	16579.422747385606	1
1	29049	16579.636509075794	0
1	29057	16582.23512391384	1
1	29059	16582.259011105629	0
1	29062	16584.15466891072	1
1	29066	16586.448823293703	0
1	31460	17843.125359077597	1
1	31461	17844.907736892794	0
1	32675	18649.743851029123	1
1	32676	18650.89798598323	0
1	34147	19562.578260907906	1
1	34151	19563.791107286297	0
1	34547	19773.409414521421	1
1	34556	19777.155769399551	0
1	35182	20057.119012863307	1
1	35193	20059.764698927354	0
1	36865	21131.75327921229	1
1	36866	21133.810862777476	0
1	37264	21318.943537419893	1
1	37271	21320.926518395106	0
1	37300	21331.47383686886	1
1	37304	21332.850711293424	0
1	38980	22481.358570092558	1
1	38984	22483.350018640642	0
1	39375	22668.371138364288	1
1	39376	22668.588286056	0
1	39380	22670.233274419795	1
1	39381	22671.224014444647	0
1	41737	24019.131057047076	1
1	41739	24019.743943287678	0
1	42570	24442.095730621004	1
1	42571	24444.029881423705	0
1	42692	24489.99384012551	1
1	42696	24493.88207534086	0
1	42700	24495.471840892546	1
1	42701	24497.645870748583	0
1	43767	25187.113131974844	1
1	43769	25188.074955675133	0
1	43777	25190.252863820104	1
1	43779	25190.540223891685	0
1	43980	25293.861147306173	1
1	43984	25296.895987916945	0
1	43997	25301.437655955713	1
1	43999	25301.619933835137	0
1	45792	26352.329002051765	1
1	45796	26352.759388479508	0
1	45814	26358.538404328155	1
1	45819	26360.69899117056	0
1	47985	27754.644087969908	1
1	47989	27756.577050707169	0
1	48077	27783.801793572952	1
1	48079	27785.406594204408	0
1	49089	28377.248101991894	1
1	49091	28378.272267062622	0
1	49094	28379.034421697738	1
1	49097	28380.365434755305	2
1	49099	28381.41177489698	1
1	49104	28381.765451866939	0
1	49107	28382.949999259519	1
1	49109	28384.162730082171	0
1	49112	28384.276340956534	1
1	49121	28386.659011062028	0
1	49749	28750.052023607407	1
1	49754	28751.935510684317	0
1	49762	28754.380819137868	1
1	49764	28755.100168650808	0
1	50142	28937.354712237094	1
1	50144	28937.488063511626	0
1	50335	29033.891942667727	1
1	50336	29038.876584040718	0
1	51515	29829.06992299289	1
1	51516	29830.439350097468	0
2	0	0	0
2	10	6.309726455827	1
2	11	6.917678869884	0
2	20	9.450706786823	1
2	22	9.921484721504	2
2	23	9.936636986579	1
2	30	11.642827171083	0
2	37	14.355631074814	1
2	38	15.000110461372	0
2	42	16.040803373225	1
2	43	16.347662351648	0
2	50	19.041233555286	1
2	51	19.510474470811	0
2	60	21.665471096694	1
2	61	22.923795084836	0
2	67	23.673333257987	1
2	69	24.414434844559	2
2	70	24.46629294976	1
2	74	25.617790661421	2
2	76	25.737754647055	3
2	77	26.118905054027	2
2	81	27.154984142112	3
2	82	27.495150019036	2
2	86	28.161262999769	3
2	88	28.802504709935	4
2	89	29.069380007119	3
2	93	29.954710221048	4
2	94	30.781705388234	3
2	98	32.32165412308	4
2	99	32.368161253625	3
2	102	33.877675374032	2
2	105	35.71258533615	1
2	108	37.376588682452	0
2	112	37.624519681041	1
2	113	38.695440506743	0
2	120	41.774474847942	1
2	121	42.184886036994	0
2	130	45.933458299844	1
2	131	46.363493512289	0
2	135	47.729826052474	1
2	136	47.912891322092	0
2	140	48.986716553858	1
2	141	49.332229924851	0
2	155	55.31234301485	1
2	156	56.587880721449	0
2	160	56.626491601568	1
2	161	58.385185851849	0
2	165	59.17593442016	1
2	166	59.638901346497	0
2	190	93.161308328686	1
2	191	94.072504160547	0
2	230	132.90610429194	1
2	231	133.943008267854	0
2	245	141.680630579634	1
2	246	141.925444135335	0
2	265	159.201024262928	1
2	266	160.735565898572	0
2	275	163.289779421367	1
2	276	164.438337680574	0
2	305	208.838026790396	1
2	306	209.65677206163	0
2	310	210.335243925693	1
2	311	211.502540974325	0
2	315	212.634646271617	1
2	316	212.913563795394	0
2	355	238.489681305536	1
2	357	238.658219279404	2
2	358	239.20579320463	1
2	362	239.925070213329	2
2	363	240.480110217357	1
2	369	241.492752691847	2
2	370	241.756340657087	1
2	374	242.02388168173	2
2	375	243.183345301921	1
2	378	244.61182828779	0
2	382	245.504386985695	1
2	383	245.832935604738	0
2	395	252.182180422824	1
2	396	252.845110500157	0
2	400	253.766897597895	1
2	401	254.174466846436	0
2	405	254.823502553527	1
2	406	256.043680967502	0
2	410	256.294322542017	1
2	411	257.284871519655	0
2	440	270.284182698625	1
2	442	270.852489325246	2
2	443	271.214899161293	1
2	446	272.77492053902	0
2	450	272.818095028086	1
2	454	273.513737464481	2
2	455	274.675933702683	1
2	459	275.404911976795	2
2	461	276.029231030573	3
2	462	276.222930434925	2
2	466	277.463461217044	3
2	467	278.216517834199	2
2	471	278.846639771767	3
2	472	279.582157701833	2
2	475	281.12245153824	1
2	479	281.94568004937	2
2	480	282.917541162317	1
2	483	284.72088592427	0
2	540	324.254549903291	1
2	541	326.126421789513	0
2	545	327.644881509835	1
2	546	328.000019936697	0
2	550	328.045270231319	1
2	552	328.909782320636	2
2	555	329.360693815411	1
2	558	331.016913182163	0
2	565	334.646453332168	1
2	566	334.837059547627	0
2	582	339.499078278033	1
2	583	339.940969269583	0
2	617	357.798046864298	1
2	618	358.006005609566	0
2	635	365.587360854806	1
2	638	365.911492720203	0
2	642	366.532152691337	1
2	645	367.890692213134	0
2	649	368.029703287003	1
2	651	369.244492194775	2
2	652	369.666442247809	1
2	656	370.228672666655	2
2	657	371.182613494949	1
2	663	372.46034207715	2
2	664	372.883688664579	1
2	668	373.633043781495	2
2	669	374.223242923387	1
2	672	375.542183984213	0
2	679	376.754932304127	1
2	680	378.636869345188	0
2	699	384.846832289023	1
2	700	385.552658286832	0
2	720	395.443706332535	1
2	721	395.878359951664	0
2	730	398.25504079913	1
2	731	398.997795563353	0
2	735	400.142313702876	1
2	736	400.26118610294	0
2	755	406.476357603047	1
2	757	407.050237830451	2
2	758	407.184809266966	1
2	762	407.967596982469	2
2	763	408.709752012421	1
2	766	410.012827919428	0
2	820	456.7340163256	1
2	821	457.988229117173	0
2	825	458.06519261564	1
2	826	459.320052015412	0
2	835	462.593202805588	1
2	836	463.840234889454	0
2	840	464.160044853065	1
2	841	465.431675924538	0
2	845	465.85458591347	1
2	847	467.080577319171	2
2	848	467.184363963818	1
2	852	467.400400475572	2
2	853	468.396408871366	1
2	857	470.17196847336	2
2	859	470.349464088842	3
2	860	470.352135973228	2
2	864	471.524074933993	3
2	866	471.831173525432	4
2	867	471.931250298759	3
2	871	473.14929157368	4
2	872	473.885186788989	3
2	875	475.349712312026	2
2	879	475.713081983919	3
2	881	476.118233712307	4
2	884	476.665248683086	3
2	887	477.889074082291	2
2	890	479.769417946963	1
2	894	479.935791670175	2
2	895	481.153854437163	1
2	899	481.479879047212	2
2	900	482.756259857668	1
2	904	483.421006545078	2
2	905	484.330129200025	1
2	908	486.291737759663	0
2	912	487.254233156145	1
2	913	488.04640482123	0
2	917	488.735677377759	1
2	919	488.826302826337	2
2	920	489.28119658119	1
2	923	490.891205219915	0
2	932	493.295981686438	1
2	934	493.705375744107	2
2	935	494.149133681496	1
2	941	494.959917623066	2
2	942	495.948305710768	1
2	946	496.082852769582	2
2	948	496.648155413996	3
2	949	497.310424953503	2
2	953	497.834976281715	3
2	954	498.588793268045	2
2	957	499.844521745098	1
2	960	501.527834415053	0
2	967	503.674548337413	1
2	969	504.424355456188	2
2	970	504.935684633617	1
2	974	505.011544910746	2
2	975	506.39450744613	1
2	981	506.727352733178	2
2	984	508.311631261175	1
2	988	508.621968696568	2
2	989	510.063032761206	1
2	993	510.780522468715	2
2	994	511.512256284793	1
2	997	513.416495446292	0
2	1004	514.961883331573	1
2	1005	516.614467464564	0
2	1014	519.048106804249	1
2	1015	519.615634489236	0
2	1035	531.225490703315	1
2	1036	531.755306308357	0
2	1040	533.343625371321	1
2	1041	533.495004528588	0
2	1045	534.412450074469	1
2	1046	534.940096267699	0
2	1055	537.211592011027	1
2	1056	538.862025024945	0
2	1070	544.585505917292	1
2	1071	544.725347253031	0
2	1075	546.159463579257	1
2	1076	546.583197228148	0
2	1080	547.837311727168	1
2	1081	547.939032690882	0
2	1085	548.455702218358	1
2	1087	549.161190937605	2
2	1088	549.86468023686	1
2	1091	551.382125103383	0
2	1100	554.061967007103	1
2	1101	555.098295621332	0
2	1105	556.654843707232	1
2	1106	556.880300007705	0
2	1110	557.261001260293	1
2	1111	558.635691307057	0
2	1117	559.652763429831	1
2	1118	560.048992021513	0
2	1125	561.809560048387	1
2	1127	563.000304504434	2
2	1129	563.455829697784	3
2	1130	563.574910243918	2
2	1133	564.973897674438	1
2	1137	565.452744372439	2
2	1138	566.345050509964	1
2	1141	567.852977664527	0
2	1150	571.012210970177	1
2	1151	572.018845645967	0
2	1155	573.391256885494	1
2	1156	573.669131567213	0
2	1160	574.243040001074	1
2	1162	574.754632680843	2
2	1163	575.235658975202	1
2	1166	576.84481795549	0
2	1170	577.148062136118	1
2	1173	578.673800768401	0
2	1177	579.739320296798	1
2	1179	579.739655510979	2
2	1180	580.117957677762	1
2	1183	581.44121057454	0
2	1200	590.322406740328	1
2	1201	591.111170095234	0
2	1205	591.497485220731	1
2	1206	592.364848933025	0
2	1292	695.045802263211	1
2	1293	695.519959441167	0
2	1297	695.826713508488	1
2	1298	697.018176578325	0
2	1330	712.190832356334	1
2	1331	713.693768833465	0
2	1355	724.876866823303	1
2	1356	724.964035601158	0
2	1360	725.442314254023	1
2	1361	726.894177324128	0
2	1375	730.875693508275	1
2	1376	732.054673502534	0
2	1382	732.358403146733	1
2	1383	733.864617950968	0
2	1387	735.28162857992	1
2	1388	735.637936703987	0
2	1392	736.446000048777	1
2	1393	737.30129827404	0
2	1400	738.788120647335	1
2	1401	740.131732731998	0
2	1430	805.588950739727	1
2	1431	806.38249498613	0
2	1435	807.509081350442	1
2	1436	807.848713449648	0
2	1445	810.061400348183	1
2	1446	811.508075201326	0
2	1465	823.035947749873	1
2	1466	823.727432331275	0
2	1475	827.419407787722	1
2	1476	828.184450430591	0
2	1480	828.2895542742	1
2	1481	829.820579560642	0
2	1490	832.549507016583	1
2	1491	833.084128951418	0
2	1495	833.366300204469	1
2	1498	834.58189261588	0
2	1502	835.012054650331	1
2	1503	835.97290501422	0
2	1510	837.626965885415	1
2	1511	838.948227891649	0
2	1535	856.79963407643	1
2	1537	857.4501537441	2
2	1539	857.725092195902	3
2	1540	857.789808474247	2
2	1544	858.139258057871	3
2	1545	859.237326301773	2
2	1549	859.626999483923	3
2	1550	860.493883930844	2
2	1554	861.308359611083	3
2	1555	862.420232196104	2
2	1559	862.600537111549	3
2	1560	864.01644192743	2
2	1564	864.347472374316	3
2	1566	865.702926971552	4
2	1567	865.83475369173	3
2	1570	867.466288202395	2
2	1573	868.684774889377	1
2	1577	868.890970379858	2
2	1578	870.164859194634	1
2	1582	871.026151732904	2
2	1583	871.631976779876	1
2	1587	872.007807461002	2
2	1588	873.173878751648	1
2	1591	874.455069274967	0
2	1630	893.511303379364	1
2	1631	894.091032360026	0
2	1680	932.823068768951	1
2	1681	934.333578284261	0
2	1700	947.23127652503	1
2	1701	948.426395303073	0
2	1705	948.943234382497	1
2	1706	949.709487195934	0
2	1710	950.79618703061	1
2	1711	951.683096788513	0
2	1715	952.010190329352	1
2	1716	953.428751076634	0
2	1735	985.871411312468	1
2	1736	987.04433011424	0
2	1740	987.591736811945	1
2	1741	988.5487831359	0
2	1745	988.624652012342	1
2	1746	990.131010401735	0
2	1780	1042.372337512535	1
2	1781	1042.544138394881	0
2	1790	1045.362442030738	1
2	1791	1046.325662949703	0
2	1860	1113.382131553061	1
2	1861	1114.171404953728	0
2	1865	1114.536130774462	1
2	1866	1115.725017224679	0
2	1870	1117.297863030798	1
2	1871	1117.531869057993	0
2	1880	1119.795021496158	1
2	1881	1121.098525975801	0
2	1885	1121.213880046389	1
2	1887	1121.910472286121	2
2	1888	1122.796092650264	1
2	1892	1122.79898276919	2
2	1893	1124.080404545895	1
2	1897	1125.727838600807	2
2	1898	1126.054921223565	1
2	1902	1126.789087084058	2
2	1904	1127.068172655004	3
2	1905	1127.770710606656	2
2	1909	1128.117278051274	3
2	1910	1129.354441517374	2
2	1913	1130.97881659974	1
2	1917	1131.802656747525	2
2	1918	1132.888764011083	1
2	1922	1133.5739214627	2
2	1923	1134.29358114448	1
2	1926	1136.218519844456	0
2	1955	1159.959295651284	1
2	1956	1159.98080750513	0
2	1970	1166.994069813596	1
2	1971	1168.328344283538	0
2	1985	1175.248966550788	1
2	1986	1176.401224522931	0
2	2010	1186.660310320797	1
2	2012	1186.663121804526	2
2	2013	1187.220404092549	1
2	2016	1188.803610693059	0
2	2020	1189.828758893207	1
2	2021	1190.133458370484	0
2	2035	1199.625761312688	1
2	2036	1199.993585288985	0
2	2040	1201.01268695198	1
2	2041	1201.857963734208	0
2	2050	1205.441333000902	1
2	2052	1206.117369947731	2
2	2053	1207.010014662514	1
2	2057	1207.28630455146	2
2	2058	1208.404228962208	1
2	2061	1209.684703641008	0
2	2065	1210.912650715395	1
2	2067	1210.980237760522	2
2	2068	1211.352235800769	1
2	2072	1212.632944659018	2
2	2073	1213.047798586447	1
2	2077	1213.208382980231	2
2	2078	1214.727461953458	1
2	2081	1216.535396829989	0
2	2100	1226.186535640389	1
2	2101	1226.860884498075	0
2	2105	1227.660322923427	1
2	2106	1228.782990032822	0
2	2120	1239.101020259896	1
2	2122	1239.190840411777	2
2	2123	1239.279910628215	1
2	2127	1239.625374534188	2
2	2128	1241.274531887003	1
2	2132	1242.560474985685	2
2	2133	1242.977972951622	1
2	2136	1244.33483445225	0
2	2145	1246.255514222392	1
2	2147	1247.955039471946	2
2	2148	1248.035272699557	1
2	2152	1248.370537234901	2
2	2153	1249.611280371211	1
2	2156	1251.07106428422	0
2	2165	1254.898734875932	1
2	2166	1255.528270734145	0
2	2170	1255.748678778236	1
2	2172	1255.940075037263	2
2	2174	1256.558325573675	3
2	2175	1256.816947601407	2
2	2178	1258.305512639738	1
2	2182	1259.913253953911	2
2	2183	1260.226071003682	1
2	2187	1260.59602387855	2
2	2188	1261.550679788223	1
2	2191	1262.820684943019	0
2	2200	1264.725079424665	1
2	2202	1264.822697113451	2
2	2204	1265.100026076091	3
2	2206	1265.128522647497	4
2	2207	1265.663457523889	3
2	2210	1267.131630397632	2
2	2213	1269.084701878435	1
2	2217	1269.533877559901	2
2	2218	1270.652294836982	1
2	2222	1270.773597650198	2
2	2223	1272.310963443338	1
2	2227	1273.245310242829	2
2	2228	1273.93632244826	1
2	2232	1275.252516850395	2
2	2233	1275.318966412402	1
2	2237	1275.895606564805	2
2	2238	1277.209841756008	1
2	2242	1278.484268232671	2
2	2243	1278.93764030528	1
2	2246	1280.327290379114	0
2	2275	1314.471407320565	1
2	2276	1314.642072138668	0
2	2285	1317.006135004728	1
2	2286	1318.356506602744	0
2	2295	1322.346832067927	1
2	2296	1322.816709707572	0
2	2300	1323.085977735686	1
2	2302	1323.8693024865	2
2	2303	1324.491874560981	1
2	2307	1325.241860658681	2
2	2308	1326.063237152143	1
2	2312	1326.875493452518	2
2	2314	1327.721463628079	3
2	2315	1327.977459711848	2
2	2318	1329.375882219976	1
2	2321	1331.246319020061	0
2	2325	1331.421873043824	1
2	2327	1332.26228944967	2
2	2328	1333.015038474171	1
2	2332	1333.374684246179	2
2	2333	1334.392767656303	1
2	2337	1335.528262918712	2
2	2338	1335.677107223763	1
2	2341	1337.197614376328	0
2	2347	1337.604714492967	1
2	2351	1337.865468851546	2
2	2352	1338.582123714208	1
2	2355	1340.495656174503	0
2	2359	1341.206758176228	1
2	2360	1341.791908773675	0
2	2364	1342.925292861105	1
2	2365	1343.34668680419	0
2	2369	1344.541769060527	1
2	2370	1344.562317797437	0
2	2374	1345.930039490426	1
2	2375	1345.960755114712	0
2	2379	1346.306264594673	1
2	2380	1347.898987499893	0
2	2390	1352.357854735826	1
2	2391	1353.040282566741	0
2	2397	1354.603206281175	1
2	2398	1354.945318322338	0
2	2405	1356.907478207747	1
2	2406	1358.136375341646	0
2	2445	1386.566381562817	1
2	2446	1387.664267834767	0
2	2455	1391.082820805641	1
2	2456	1391.132864188352	0
2	2460	1392.581220869471	1
2	2461	1392.627573018843	0
2	2465	1393.520348441845	1
2	2466	1394.140374590778	0
2	2475	1395.809856962086	1
2	2476	1397.151971726899	0
2	2480	1397.391091892186	1
2	2481	1398.711762882617	0
2	2485	1399.516571486648	1
2	2486	1400.57787271965	0
2	2490	1401.258032046075	1
2	2491	1402.446424565126	0
2	2500	1405.044799914309	1
2	2502	1405.251191430185	2
2	2503	1406.239980041421	1
2	2507	1406.824617306997	2
2	2509	1407.396962724446	3
2	2510	1408.01990137603	2
2	2514	1408.357898822163	3
2	2516	1408.540340330642	4
2	2517	1409.540264739281	3
2	2520	1410.956143797746	2
2	2524	1411.054702441963	3
2	2525	1412.417463854885	2
2	2528	1414.335824291406	1
2	2533	1416.137146042285	0
2	2550	1422.089446482814	1
2	2552	1422.193144120602	2
2	2554	1422.894473561792	3
2	2555	1423.330609240248	2
2	2558	1424.710858663223	1
2	2563	1426.139006916113	0
2	2570	1427.977667929966	1
2	2572	1428.039697822101	2
2	2573	1428.805568561009	1
2	2579	1429.160357984318	2
2	2582	1430.18952678503	1
2	2586	1431.752420660019	2
2	2587	1431.77873216053	1
2	2592	1433.700973673402	0
2	2599	1435.537249103798	1
2	2602	1436.55880217874	0
2	2611	1440.049040687632	1
2	2612	1440.169817021913	0
2	2632	1446.647759920968	1
2	2633	1447.301383202014	0
2	2640	1449.104076825491	1
2	2641	1450.027320942147	0
2	2655	1474.59706220638	1
2	2656	1475.91339602874	0
2	2660	1476.177305327406	1
2	2661	1477.186644278405	0
2	2665	1478.685645978933	1
2	2666	1478.705990050671	0
2	2670	1479.042894132539	1
2	2671	1480.084155612936	0
2	2720	1521.536788978009	1
2	2721	1522.241124503872	0
2	2810	1608.785588409731	1
2	2812	1609.827658840652	2
2	2813	1610.293730999836	1
2	2817	1611.473374184202	2
2	2819	1611.513998832186	3
2	2820	1611.654423759626	2
2	2824	1612.669728681776	3
2	2826	1612.714484537092	4
2	2827	1612.998487701574	3
2	2830	1614.243234454216	2
2	2834	1614.510920736067	3
2	2837	1616.060458589093	2
2	2841	1616.47068594474	3
2	2842	1617.689431019993	2
2	2846	1618.290771795625	3
2	2848	1618.977691859845	4
2	2849	1619.405746146785	3
2	2852	1621.392363665933	2
2	2856	1621.714859489025	3
2	2857	1623.384379889565	2
2	2860	1624.851317305426	1
2	2864	1625.118293252839	2
2	2865	1626.530121045309	1
2	2871	1627.474222453074	2
2	2872	1628.274434233765	1
2	2876	1629.656883436477	2
2	2877	1629.971908311295	1
2	2882	1631.294045078504	0
2	2897	1637.33925526084	1
2	2900	1637.818383734051	0
2	2909	1640.239395036014	1
2	2910	1641.164066749562	0
2	2917	1643.874934900542	1
2	2918	1643.996650045861	0
2	2925	1645.867964575337	1
2	2926	1646.969908665057	0
2	2940	1661.558460403817	1
2	2941	1661.81931023141	0
2	2945	1662.386771413226	1
2	2946	1663.485092373654	0
2	2955	1667.48568149721	1
2	2957	1667.531961618788	2
2	2958	1668.000930926734	1
2	2962	1668.64137026607	2
2	2963	1669.262279418827	1
2	2966	1670.698137377546	0
2	2990	1708.151069981625	1
2	2991	1708.743951364668	0
2	2995	1708.804265937061	1
2	2997	1709.299691223221	2
2	2999	1709.592256512544	3
2	3000	1710.048861633116	2
2	3003	1711.804270549552	1
2	3007	1712.246828108305	2
2	3008	1713.540828285614	1
2	3011	1715.065308740424	0
2	3040	1737.723677142315	1
2	3041	1738.900441693016	0
2	3045	1739.21152191748	1
2	3046	1740.444325116523	0
2	3050	1741.001840577575	1
2	3052	1741.114115523256	2
2	3053	1742.394048213087	1
2	3057	1742.564549401544	2
2	3059	1743.470864948714	3
2	3060	1743.821943253525	2
2	3063	1745.176528572724	1
2	3067	1745.590434182385	2
2	3069	1746.31701732356	3
2	3070	1746.737662074775	2
2	3074	1747.333756222737	3
2	3076	1748.01275790331	4
2	3077	1748.618187195868	3
2	3080	1750.182322182567	2
2	3083	1751.481558995196	1
2	3086	1753.180365543873	0
2	3090	1754.064549926657	1
2	3091	1754.473930374966	0
2	3095	1754.61328059727	1
2	3097	1755.119657018326	2
2	3098	1756.284878416047	1
2	3102	1757.531882015493	2
2	3103	1757.958136018985	1
2	3107	1758.798009191018	2
2	3109	1758.819646207776	3
2	3111	1759.246797253746	4
2	3112	1759.29778699527	3
2	3118	1759.674991620483	4
2	3119	1761.196636069067	3
2	3122	1762.42067009794	2
2	3126	1763.152365424739	3
2	3128	1763.57875827204	4
2	3129	1763.658138272412	3
2	3133	1764.166344438202	4
2	3134	1765.139879280016	3
2	3137	1766.821342802294	2
2	3140	1768.707608266421	1
2	3143	1770.301995102376	0
2	3147	1771.16313948324	1
2	3148	1771.664203812801	0
2	3182	1799.300978829069	1
2	3183	1800.210855076315	0
2	3187	1802.137027160571	1
2	3188	1802.209976218866	0
2	3192	1802.662425805642	1
2	3193	1804.112819021234	0
2	3197	1804.277575601713	1
2	3198	1805.585952559525	0
2	3210	1809.75000472192	1
2	3211	1811.574463551913	0
2	3220	1814.039694236434	1
2	3221	1815.482185342957	0
2	3245	1831.157703900329	1
2	3246	1832.67117530979	0
2	3255	1834.601542626008	1
2	3256	1835.70261320263	0
2	3275	1851.089872474527	1
2	3278	1852.160300389623	0
2	3285	1853.82979968973	1
2	3288	1855.372151024213	0
2	3305	1863.434493349615	1
2	3306	1865.05497837577	0
2	3320	1872.372832708269	1
2	3321	1872.994882109086	0
2	3340	1888.891222799908	1
2	3341	1890.349959583948	0
2	3345	1890.593178142369	1
2	3347	1891.502766798453	2
2	3348	1892.286478731031	1
2	3351	1893.978649990069	0
2	3365	1901.54985258259	1
2	3367	1901.921067298702	2
2	3368	1902.989363198282	1
2	3371	1904.581622264275	0
2	3375	1904.946641832083	1
2	3377	1905.618290820747	2
2	3379	1906.176761130341	3
2	3380	1906.455753475168	2
2	3383	1908.180333441981	1
2	3386	1909.586122748182	0
2	3390	1909.847919658629	1
2	3391	1911.132124371939	0
2	3395	1911.518996519429	1
2	3397	1911.742467638661	2
2	3398	1912.73273217056	1
2	3402	1912.862372199431	2
2	3403	1914.040268385895	1
2	3407	1914.140604273593	2
2	3408	1915.670286955052	1
2	3411	1917.651705565975	0
2	3420	1924.095415766098	1
2	3421	1924.886834123725	0
2	3450	1966.135697857416	1
2	3451	1966.54759322422	0
2	3455	1967.076688170971	1
2	3457	1967.413419590058	2
2	3458	1968.218532831952	1
2	3462	1968.536267555683	2
2	3463	1970.082729278304	1
2	3467	1971.630101849608	2
2	3468	1972.020714190774	1
2	3472	1973.150726178658	2
2	3473	1973.497465183199	1
2	3477	1973.750930356261	2
2	3479	1974.137700569017	3
2	3480	1975.264440595344	2
2	3484	1977.047804472548	3
2	3485	1977.234234593794	2
2	3488	1979.036974156447	1
2	3492	1980.170848882857	2
2	3493	1981.015217133038	1
2	3496	1982.541300456397	0
2	3500	1982.5994525538	1
2	3501	1983.786798744447	0
2	3600	2094.941659976909	1
2	3601	2095.694527753485	0
2	3625	2107.748411010945	1
2	3626	2109.022245802022	0
2	3657	2128.234877427707	1
2	3658	2128.352741875894	0
2	3662	2129.839400198934	1
2	3663	2130.082930951587	0
2	3667	2131.283414589847	1
2	3668	2131.387099009774	0
2	3675	2132.703953433309	1
2	3677	2133.489964641416	2
2	3678	2134.422381749212	1
2	3681	2135.640917372911	0
2	3685	2136.005574913493	1
2	3686	2137.174175927437	0
2	3690	2137.923329924271	1
2	3691	2139.115504963159	0
2	3695	2140.422944851895	1
2	3696	2140.516352408774	0
2	3715	2161.580528539306	1
2	3716	2163.449135892064	0
2	3720	2164.639841356157	1
2	3721	2164.925642465585	0
2	3765	2204.170199802609	1
2	3766	2204.694138144969	0
2	3770	2205.117642786219	1
2	3771	2206.055163695558	0
2	3780	2209.082809701262	1
2	3781	2209.185478859056	0
2	3800	2234.526330546252	1
2	3801	2235.883370291022	0
2	3805	2236.482066780056	1
2	3806	2237.205306784761	0
2	3830	2265.628558147893	1
2	3831	2266.450245095348	0
2	3875	2316.413582547714	1
2	3877	2316.679827345103	2
2	3878	2317.182692299756	1
2	3882	2317.694784865904	2
2	3883	2318.555621196675	1
2	3888	2320.292406201708	0
2	3895	2322.450963879112	1
2	3896	2323.146649319465	0
2	3905	2325.864739306209	1
2	3906	2326.435167350407	0
2	3920	2333.863490281592	1
2	3921	2335.336690373858	0
2	3930	2339.389523453748	1
2	3932	2339.569239197019	2
2	3933	2339.736878151672	1
2	3937	2339.804122095118	2
2	3938	2341.220986500049	1
2	3942	2342.095922750572	2
2	3943	2342.573466597164	1
2	3947	2342.991027866929	2
2	3949	2343.650714213133	3
2	3950	2344.082073413433	2
2	3954	2344.196086635467	3
2	3955	2345.894613929131	2
2	3958	2347.563085676768	1
2	3962	2347.639769425917	2
2	3963	2348.798350547851	1
2	3966	2350.592096442209	0
2	3980	2357.134866290133	1
2	3982	2357.313656129618	2
2	3983	2358.786385099348	1
2	3986	2360.140171272066	0
2	4017	2402.781441903881	1
2	4018	2404.370196152505	0
2	4025	2407.138904883056	1
2	4026	2407.811886842575	0
2	4030	2407.954209288994	1
2	4031	2409.602452330504	0
2	4035	2409.68612623592	1
2	4036	2411.197466577616	0
2	4040	2412.440299772854	1
2	4041	2412.865887644541	0
2	4045	2414.086492676211	1
2	4047	2414.534436452151	2
2	4048	2414.81066298059	1
2	4051	2416.130361173514	0
2	4055	2416.787413716382	1
2	4057	2416.882399015617	2
2	4058	2417.36215381569	1
2	4062	2418.321500724095	2
2	4063	2419.309528403196	1
2	4067	2419.362629592043	2
2	4068	2421.246050949979	1
2	4071	2422.521254092294	0
2	4080	2425.210440383714	1
2	4082	2425.69627316695	2
2	4084	2425.908143517829	3
2	4085	2426.683769680702	2
2	4088	2427.944889866517	1
2	4091	2429.323879915805	0
2	4105	2442.205972000532	1
2	4106	2442.994686970024	0
2	4120	2450.735558907054	1
2	4121	2450.791480967145	0
2	4130	2453.080224840778	1
2	4132	2453.461109513692	2
2	4133	2454.696814097979	1
2	4136	2456.459851560325	0
2	4140	2456.735711993609	1
2	4141	2458.372540809729	0
2	4195	2512.177255979075	1
2	4196	2512.300232247756	0
2	4205	2514.470185432733	1
2	4206	2515.517794140735	0
2	4210	2516.192984724834	1
2	4211	2517.058101217942	0
2	4220	2518.557559326444	1
2	4223	2519.923296004012	0
2	4240	2537.931624479176	1
2	4241	2538.600992941314	0
2	4250	2541.227095851747	1
2	4251	2542.146930456474	0
2	4300	2596.86546740609	1
2	4301	2597.453575534249	0
2	4305	2597.470243379549	1
2	4306	2598.960165048639	0
2	4335	2608.668350786086	1
2	4337	2608.773147755486	2
2	4338	2609.714337996199	1
2	4343	2611.632136755801	0
2	4347	2611.960250624205	1
2	4350	2613.017444688074	0
2	4369	2618.39138578534	1
2	4370	2619.641269753054	0
2	4374	2620.033842363274	1
2	4377	2621.508673759662	0
2	4381	2622.206692159709	1
2	4382	2622.917321914547	0
2	4386	2623.507569319593	1
2	4389	2624.842985065394	0
2	4393	2624.899343384233	1
2	4395	2625.10220645285	2
2	4396	2626.531080832072	1
2	4400	2627.708404787521	2
2	4401	2628.311438363716	1
2	4405	2629.108981795293	2
2	4406	2629.821865568608	1
2	4410	2631.148732744381	2
2	4411	2631.618053686731	1
2	4415	2631.912005820832	2
2	4417	2632.420807675265	3
2	4418	2633.467589659729	2
2	4422	2634.335406807915	3
2	4423	2634.84628198661	2
2	4426	2636.498637294696	1
2	4432	2637.081288131575	2
2	4433	2638.379590177276	1
2	4437	2639.386820057219	2
2	4438	2639.689409003706	1
2	4441	2641.472648219318	0
2	4445	2641.957779429846	1
2	4446	2643.384376978242	0
2	4450	2643.507505559834	1
2	4452	2644.284867620529	2
2	4453	2644.610678620936	1
2	4456	2646.075320214891	0
2	4460	2646.538179252182	1
2	4461	2647.849595355542	0
2	4465	2647.972809282146	1
2	4467	2648.373560529535	2
2	4469	2648.508805369475	3
2	4471	2648.681921868973	4
2	4473	2649.007415519132	5
2	4475	2649.522286777299	6
2	4476	2649.597690612563	5
2	4479	2651.126742384882	4
2	4484	2652.507816393973	3
2	4488	2652.943746353047	4
2	4490	2653.601428712502	5
2	4491	2654.339847319314	4
2	4495	2654.380596108378	5
2	4498	2656.167258182095	4
2	4501	2657.435981341937	3
2	4505	2657.468825217388	4
2	4506	2659.216605615729	3
2	4509	2660.484867921585	2
2	4513	2661.52969851133	3
2	4514	2661.735726147445	2
2	4518	2662.032352677239	3
2	4520	2662.085507319078	4
2	4521	2663.07672396146	3
2	4526	2665.065443826395	2
2	4529	2666.727456289272	1
2	4533	2667.278466869292	2
2	4534	2668.478449462469	1
2	4538	2669.268201599614	2
2	4539	2670.041977016929	1
2	4543	2671.045588537872	2
2	4545	2671.289916276837	3
2	4546	2671.346148575771	2
2	4550	2672.133638940239	3
2	4551	2673.213000731099	2
2	4554	2674.889547892961	1
2	4558	2674.970925723219	2
2	4560	2675.14134391107	3
2	4562	2676.469783881215	4
2	4563	2676.535759209025	3
2	4566	2677.96443627246	2
2	4569	2679.210288344066	1
2	4572	2681.003944318111	0
2	4576	2681.802474786395	1
2	4577	2682.870866158905	0
2	4587	2686.893697569928	1
2	4589	2687.090012582368	2
2	4590	2687.210037055166	1
2	4593	2688.439691459873	0
2	4603	2693.082309646436	1
2	4604	2693.336997545624	0
2	4614	2696.439529030047	1
2	4619	2698.00184660081	0
2	4636	2704.283507974598	1
2	4637	2705.313883746342	0
2	4641	2705.882720782013	1
2	4642	2706.528873933592	0
2	4670	2735.83538509354	1
2	4671	2736.528842720557	0
2	4675	2737.50896539326	1
2	4676	2737.840762820449	0
2	4680	2739.373922941809	1
2	4681	2739.618110198882	0
2	4685	2739.917684500807	1
2	4686	2741.323712136765	0
2	4725	2767.091808900882	1
2	4726	2767.645633800777	0
2	4790	2802.865707664999	1
2	4791	2803.039255167996	0
2	4800	2805.451032102632	1
2	4801	2806.306018395243	0
2	4805	2806.881015534824	1
2	4806	2807.83514006686	0
2	4815	2811.61702758118	1
2	4816	2812.385788257524	0
2	4820	2812.432736881715	1
2	4822	2812.603335951331	2
2	4823	2814.045609645463	1
2	4826	2815.719507485173	0
2	4830	2816.824950187598	1
2	4832	2817.004446881257	2
2	4833	2817.485089646756	1
2	4837	2818.02757851977	2
2	4838	2818.84174535229	1
2	4841	2820.253331672504	0
2	4845	2820.510630984268	1
2	4846	2821.880005456983	0
2	4850	2822.800643253933	1
2	4851	2823.080726909927	0
2	4855	2823.994379025593	1
2	4856	2824.877582091569	0
2	4860	2825.602537291331	1
2	4861	2826.545186326384	0
2	4865	2827.900303956402	1
2	4866	2828.111087769001	0
2	4870	2829.609469905339	1
2	4871	2829.94927862092	0
2	4875	2830.03598268305	1
2	4877	2830.439871548412	2
2	4878	2831.539612813397	1
2	4882	2832.812982251768	2
2	4883	2833.003093285403	1
2	4887	2833.930267694219	2
2	4888	2834.294801814585	1
2	4892	2834.457416204367	2
2	4894	2834.833225087797	3
2	4895	2836.21041870202	2
2	4899	2836.697579466557	3
2	4900	2837.72989265035	2
2	4903	2839.079295189223	1
2	4907	2839.921048878556	2
2	4908	2840.737938983842	1
2	4912	2841.436487983805	2
2	4913	2842.073017284564	1
2	4916	2843.943304429121	0
2	4920	2844.008749196807	1
2	4921	2845.927534822665	0
2	4930	2848.527337843457	1
2	4932	2849.319545402644	2
2	4933	2849.733903938629	1
2	4936	2850.951948495493	0
2	4942	2852.00342381566	1
2	4943	2852.266339354873	0
2	4947	2852.834866146205	1
2	4949	2853.58712600606	2
2	4950	2853.967599537693	1
2	4953	2855.553659568824	0
2	4980	2878.698586487964	1
2	4981	2880.184232344723	0
2	4985	2880.287272198008	1
2	4986	2881.758810836135	0
2	4990	2882.058545797305	1
2	4992	2882.132900081588	2
2	4993	2883.31938725306	1
2	4996	2885.268119574211	0
2	5000	2886.97081875248	1
2	5001	2887.217011518835	0
2	5005	2887.291787629233	1
2	5007	2887.477578931319	2
2	5008	2888.802601795888	1
2	5012	2888.841442053158	2
2	5013	2890.300096680655	1
2	5017	2890.366534905731	2
2	5018	2892.00808846826	1
2	5021	2893.359455354757	0
2	5025	2893.949465369993	1
2	5027	2894.966111871152	2
2	5028	2895.191256461352	1
2	5033	2896.646892456956	0
2	5037	2897.142063894013	1
2	5039	2897.563640437332	2
2	5041	2897.786948259035	3
2	5042	2898.204527696095	2
2	5045	2899.68450598555	1
2	5049	2899.695234317592	2
2	5052	2901.363159014902	1
2	5055	2902.569803355134	0
2	5059	2903.012952004052	1
2	5060	2904.076094573236	0
2	5064	2905.499269386425	1
2	5065	2905.806308461598	0
2	5071	2906.956753893792	1
2	5072	2907.570948124549	0
2	5076	2908.076096247186	1
2	5077	2909.251847782231	0
2	5089	2912.545801404509	1
2	5090	2913.800427536911	0
2	5110	2922.598293764157	1
2	5111	2922.852105644962	0
2	5120	2924.864524771075	1
2	5121	2926.087246058195	0
2	5135	2930.90490266565	1
2	5136	2931.971844982483	0
2	5145	2939.198649773202	1
2	5146	2940.494992559941	0
2	5150	2940.567343536611	1
2	5151	2941.836058122271	0
2	5160	2944.186882496779	1
2	5162	2944.264237372182	2
2	5165	2944.825772072486	1
2	5169	2945.336755529245	2
2	5171	2945.902870438018	3
2	5172	2946.81377995789	2
2	5176	2947.063408690166	3
2	5178	2947.28318931177	4
2	5179	2948.4437486374	3
2	5183	2949.537982712113	4
2	5184	2950.397972687818	3
2	5188	2950.870759763199	4
2	5190	2951.549512602247	5
2	5192	2951.920805320527	6
2	5193	2952.377280896269	5
2	5196	2954.168969575055	4
2	5200	2955.213357003378	5
2	5201	2955.453597572185	4
2	5204	2956.853288328759	3
2	5207	2958.490492835194	2
2	5211	2959.355915091348	3
2	5213	2960.186770884645	4
2	5214	2960.198784263916	3
2	5218	2961.092211762297	4
2	5219	2961.568534060307	3
2	5224	2963.043315517083	2
2	5228	2963.431560507069	3
2	5229	2964.858791713529	2
2	5232	2966.408447396868	1
2	5236	2967.15433487268	2
2	5237	2968.375483428986	1
2	5240	2969.582006181703	0
2	5244	2970.111931850649	1
2	5245	2971.42158412777	0
2	5252	2973.917948010291	1
2	5253	2974.25460958697	0
2	5257	2976.213662614782	1
2	5258	2976.21764943462	0
2	5262	2976.382192188138	1
2	5263	2977.816038541236	0
2	5267	2977.865086049001	1
2	5268	2979.76973738365	0
2	5272	2979.965678266148	1
2	5273	2981.707190295981	0
2	5277	2982.836932600343	1
2	5278	2983.440191553088	0
2	5282	2984.524350724698	1
2	5284	2984.914783874751	2
2	5285	2984.935993751252	1
2	5289	2985.140891759794	2
2	5290	2986.306033729317	1
2	5294	2987.172111393351	2
2	5295	2987.921436023081	1
2	5298	2989.14043624338	0
2	5302	2990.540786819934	1
2	5303	2991.038452209274	0
2	5307	2991.112053418913	1
2	5308	2992.956754163022	0
2	5320	2997.238332573522	1
2	5321	2997.650404204843	0
2	5327	2997.830809706582	1
2	5328	2999.377353318823	0
2	5335	3001.08215409846	1
2	5337	3002.253749896871	2
2	5338	3002.570453063068	1
2	5342	3003.308344706376	2
2	5343	3003.801371676517	1
2	5347	3004.323453191527	2
2	5349	3005.061833978779	3
2	5350	3005.178694956047	2
2	5353	3007.120558705596	1
2	5357	3008.264025539272	2
2	5358	3008.603007939873	1
2	5364	3009.381336459904	2
2	5365	3010.125048625512	1
2	5368	3011.45545075093	0
2	5372	3012.580839853691	1
2	5373	3013.109729730753	0
2	5377	3014.153580796987	1
2	5378	3014.594498268557	0
2	5382	3014.974150269834	1
2	5386	3015.627986031587	2
2	5387	3016.578373865639	1
2	5390	3017.927788752359	0
2	5394	3018.8102251672	1
2	5395	3019.689541507554	0
2	5402	3022.911726393593	1
2	5403	3023.51430641957	0
2	5410	3025.968307561946	1
2	5411	3026.418705835793	0
2	5415	3026.634746452759	1
2	5417	3027.328770016692	2
2	5418	3027.709037004825	1
2	5423	3029.130475746136	0
2	5430	3031.355189901149	1
2	5431	3031.745193029608	0
2	5435	3033.367306156623	1
2	5438	3033.497626494843	0
2	5442	3033.60586163104	1
2	5443	3035.470193847309	0
2	5450	3037.668735792184	1
2	5451	3038.471063622686	0
2	5455	3039.043076299217	1
2	5457	3039.125002299071	2
2	5460	3040.363083735148	1
2	5464	3041.02338705821	2
2	5465	3041.566484791639	1
2	5468	3042.802603371854	0
2	5475	3044.980475818189	1
2	5477	3045.496981880421	2
2	5478	3045.578871288191	1
2	5482	3046.427282906381	2
2	5483	3047.418174875382	1
2	5486	3049.299745440151	0
2	5490	3050.15179955422	1
2	5491	3050.790568903874	0
2	5495	3050.896464330382	1
2	5497	3051.909471970176	2
2	5499	3051.930443361876	3
2	5501	3052.097286148756	4
2	5502	3052.440763284306	3
2	5506	3052.695066176755	4
2	5507	3054.215874659869	3
2	5510	3055.671564920846	2
2	5514	3057.120620746989	3
2	5515	3057.13754972	2
2	5519	3057.685847584336	3
2	5520	3058.502224090736	2
2	5524	3059.107649372233	3
2	5525	3059.78094082665	2
2	5529	3060.695249280532	3
2	5530	3061.543915536109	2
2	5534	3061.757093525849	3
2	5535	3062.834603362385	2
2	5539	3062.92361314108	3
2	5540	3064.175219172653	2
2	5544	3064.534424007993	3
2	5545	3065.593289893907	2
2	5549	3066.366893737858	3
2	5550	3067.205123006408	2
2	5553	3068.560659720045	1
2	5556	3070.026209645201	0
2	5565	3086.762847384717	1
2	5566	3087.038386328787	0
2	5580	3095.364822526374	1
2	5581	3096.506663824832	0
2	5615	3126.311461745581	1
2	5616	3127.571126936926	0
2	5620	3127.810596383136	1
2	5622	3128.398456326453	2
2	5623	3129.475934002912	1
2	5626	3130.719425192466	0
2	5630	3131.667380492035	1
2	5631	3132.187224456845	0
2	5635	3132.702567677699	1
2	5636	3133.404713525428	0
2	5640	3133.595192682999	1
2	5641	3134.960306630834	0
2	5645	3135.701191622299	1
2	5646	3136.637756098053	0
2	5650	3137.019248968194	1
2	5651	3138.104264343521	0
2	5665	3145.108132503716	1
2	5666	3145.905364670245	0
2	5670	3147.157353513174	1
2	5671	3147.897298939353	0
2	5675	3149.016409823373	1
2	5676	3149.199195364317	0
2	5685	3154.059241384351	1
2	5686	3154.278383413127	0
2	5705	3167.43609349996	1
2	5706	3168.696568296694	0
2	5710	3169.770902203938	1
2	5711	3170.217773035944	0
2	5760	3229.326085026516	1
2	5762	3229.397428514729	2
2	5763	3229.982678988822	1
2	5767	3230.208547345674	2
2	5768	3231.314660462797	1
2	5773	3232.982231278405	0
2	5785	3236.574710952385	1
2	5786	3237.852388726166	0
2	5790	3237.915143340786	1
2	5791	3239.322058378337	0
2	5800	3242.532593466595	1
2	5801	3242.650836475929	0
2	5810	3245.32574814625	1
2	5811	3245.480821855543	0
2	5817	3245.66294789958	1
2	5818	3247.072487122183	0
2	5825	3249.842221385457	1
2	5826	3250.483033831221	0
2	5850	3261.455315157438	1
2	5851	3262.551320302595	0
2	5855	3263.535780465925	1
2	5856	3264.501183701788	0
2	5865	3266.269977106456	1
2	5866	3267.49151714157	0
2	5872	3268.992409276511	1
2	5873	3269.344582202394	0
2	5880	3270.959598909113	1
2	5881	3272.794684960988	0
2	5952	3310.410753660129	1
2	5953	3310.679192195928	0
2	5975	3319.055690667291	1
2	5976	3319.617952385167	0
2	5980	3319.73626545848	1
2	5981	3321.250849637943	0
2	5985	3322.107364787714	1
2	5986	3323.081301030512	0
2	6000	3326.692197374412	1
2	6001	3327.691231394248	0
2	6005	3327.766645423482	1
2	6007	3328.348139192128	2
2	6008	3329.641566090533	1
2	6011	3331.464622356431	0
2	6045	3376.685261259102	1
2	6046	3376.740203973827	0
2	6050	3376.994422310874	1
2	6051	3378.185051558715	0
2	6055	3379.250068872643	1
2	6056	3380.074689562981	0
2	6060	3380.61163923762	1
2	6062	3380.809008465733	2
2	6063	3381.959043525335	1
2	6066	3383.772968491156	0
2	6070	3384.773634616885	1
2	6072	3384.868019305226	2
2	6073	3385.149563685049	1
2	6079	3385.733629554257	2
2	6080	3386.831718745072	1
2	6084	3386.954363454601	2
2	6085	3388.076805766289	1
2	6088	3389.89791280086	0
2	6092	3390.273926194377	1
2	6093	3391.675076413703	0
2	6097	3392.842106178771	1
2	6098	3393.635035493587	0
2	6120	3401.56519275176	1
2	6121	3402.333562436508	0
2	6130	3403.671187901291	1
2	6131	3404.899172529759	0
2	6140	3408.535566689644	1
2	6141	3409.234649534609	0
2	6195	3508.147791928598	1
2	6196	3508.389170973651	0
2	6200	3508.677561581474	1
2	6201	3510.016876395136	0
2	6220	3532.661518346275	1
2	6222	3532.843689444347	2
2	6224	3533.712979252606	3
2	6225	3533.797079834858	2
2	6228	3535.698285633842	1
2	6232	3536.369958073245	2
2	6233	3537.599804332624	1
2	6237	3537.710627972783	2
2	6239	3538.70095076824	3
2	6241	3538.874049876631	4
2	6242	3539.488272472243	3
2	6246	3540.214718376603	4
2	6247	3541.043185408558	3
2	6250	3542.618979074951	2
2	6254	3542.806167969733	3
2	6255	3544.317748588841	2
2	6259	3544.638752283423	3
2	6261	3544.687130060007	4
2	6262	3546.067192676436	3
2	6265	3547.43455855656	2
2	6269	3547.638486671777	3
2	6271	3548.485811070825	4
2	6272	3548.796372955624	3
2	6276	3548.893270506207	4
2	6277	3550.790824409347	3
2	6280	3552.039685331989	2
2	6284	3553.117842417409	3
2	6286	3553.270548630299	4
2	6287	3553.904422091093	3
2	6290	3555.38285791162	2
2	6293	3556.952523969631	1
2	6297	3557.565178211667	2
2	6298	3558.526406046148	1
2	6302	3559.089384596634	2
2	6304	3559.797175423836	3
2	6305	3559.893518196378	2
2	6308	3561.796751775738	1
2	6311	3563.201401158754	0
2	6315	3563.302777450418	1
2	6316	3564.903193877783	0
2	6345	3589.985513639418	1
2	6346	3590.857191227406	0
2	6400	3618.799189086981	1
2	6401	3619.2737513075	0
2	6440	3678.462827349904	1
2	6441	3678.510490428161	0
2	6510	3717.055259903439	1
2	6511	3718.235692692077	0
2	6520	3723.212592397112	1
2	6523	3724.768838889061	0
2	6527	3725.980286191469	1
2	6528	3725.984019574618	0
2	6532	3726.198520906892	1
2	6534	3726.391679564135	2
2	6535	3727.258373488208	1
2	6539	3727.954168362581	2
2	6540	3729.205579031167	1
2	6544	3729.92841068859	2
2	6545	3731.121448848305	1
2	6549	3732.001580014576	2
2	6550	3732.873540934084	1
2	6553	3734.1432453773	0
2	6557	3734.173460597668	1
2	6558	3735.3882572555	0
2	6567	3738.504586997217	1
2	6568	3738.593026456891	0
2	6590	3747.8431947001	1
2	6591	3748.371511900224	0
2	6610	3756.506863238922	1
2	6612	3756.653724267067	2
2	6613	3757.924378835412	1
2	6616	3759.923813522982	0
2	6635	3778.189675089071	1
2	6637	3778.303128960469	2
2	6638	3779.201806724122	1
2	6643	3780.941968163712	0
2	6650	3783.065546908846	1
2	6651	3783.896839654123	0
2	6660	3785.812699356128	1
2	6661	3786.575694670019	0
2	6700	3807.880481642541	1
2	6701	3808.063621942698	0
2	6715	3814.643446099574	1
2	6716	3815.534898998773	0
2	6720	3816.951225906566	1
2	6721	3817.271899614854	0
2	6727	3818.474800626499	1
2	6729	3818.519411378825	2
2	6730	3818.566836406475	1
2	6733	3819.781971204279	0
2	6737	3819.873152524388	1
2	6738	3821.600210903211	0
2	6742	3822.27366057068	1
2	6743	3823.183200933597	0
2	6755	3826.643938461517	1
2	6756	3827.843458892218	0
2	6775	3841.614378449702	1
2	6777	3842.603930709096	2
2	6778	3843.292955597643	1
2	6782	3843.296765922372	2
2	6783	3844.617542078313	1
2	6787	3845.050019268395	2
2	6788	3846.464875453491	1
2	6792	3846.8730536147	2
2	6793	3848.42826561049	1
2	6796	3850.287750101428	0
2	6805	3854.080238591352	1
2	6806	3855.235752385529	0
2	6855	3880.887284814354	1
2	6856	3880.963295277751	0
2	6875	3887.304692442876	1
2	6876	3888.024089393934	0
2	6880	3889.356631479243	1
2	6881	3889.604048197699	0
2	6885	3890.14457344388	1
2	6886	3891.34944724681	0
2	6900	3903.09529627819	1
2	6901	3904.037240516229	0
2	6915	3913.712892858025	1
2	6916	3913.895365008829	0
2	6920	3914.009153775455	1
2	6921	3915.62545864631	0
2	6945	3940.909287415764	1
2	6946	3942.354784683115	0
2	6955	3947.803508446133	1
2	6956	3948.072648434443	0
2	6965	3949.922145383427	1
2	6967	3951.04327024036	2
2	6968	3951.360030330261	1
2	6972	3951.702485476062	2
2	6975	3952.795588723859	1
2	6979	3954.051690799874	2
2	6980	3954.223058972238	1
2	6985	3955.686038513212	0
2	6991	3957.231674299183	1
2	6992	3957.248378070919	0
2	6999	3959.407593416116	1
2	7000	3960.619233393213	0
2	7004	3962.109330768573	1
2	7005	3962.223296589507	0
2	7009	3962.367473837087	1
2	7010	3963.771587380311	0
2	7014	3963.805322628338	1
2	7015	3965.460861141896	0
2	7022	3967.481619925437	1
2	7023	3968.993963768808	0
2	7030	3971.70766997213	1
2	7031	3972.245191583699	0
2	7035	3972.735879946963	1
2	7037	3973.53952155452	2
2	7038	3974.24070230267	1
2	7041	3975.98808382201	0
2	7045	3976.399757922349	1
2	7046	3977.408424403621	0
2	7050	3978.603078625553	1
2	7051	3979.001105231894	0
2	7055	3979.830972398529	1
2	7056	3980.312364053642	0
2	7075	4023.043248501354	1
2	7076	4024.81488341956	0
2	7080	4024.970161372584	1
2	7081	4026.316442264119	0
2	7095	4041.581934277782	1
2	7096	4042.6325851634	0
2	7107	4051.514582963376	1
2	7108	4051.898525986004	0
2	7125	4056.775096843878	1
2	7126	4058.219363728517	0
2	7130	4059.634789952478	1
2	7131	4059.906882972063	0
2	7190	4094.737381920919	1
2	7191	4096.173912525263	0
2	7195	4097.61722993997	1
2	7196	4097.911347114195	0
2	7200	4099.032605528037	1
2	7201	4099.35091531304	0
2	7210	4101.441589063747	1
2	7212	4102.203587729955	2
2	7213	4102.791892299329	1
2	7217	4103.607752969775	2
2	7218	4104.227132816513	1
2	7221	4106.119459946168	0
2	7225	4106.439208325401	1
2	7226	4107.342398432729	0
2	7230	4107.722602467638	1
2	7231	4109.039515161229	0
2	7235	4109.422358781729	1
2	7236	4110.975129836512	0
2	7270	4148.523674485916	1
[...]
6	28467	16208.203095071571	1.469281186163
6	28602	16296.059220370573	8.046725832497
6	28635	16331.495549888494	1.804393911175
6	28682	16354.193028509505	12.081996999121
6	28697	16358.217387826595	14.565207127246
6	28747	16375.636732220068	4.699115635992
6	28872	16469.056114985899	6.577062296069
6	28920	16514.382456958951	6.883817907068
6	28927	16526.783713801884	1.797792463005
6	29033	16572.292443374275	19.147962809797
6	29065	16585.936975674622	13.369976222483
6	29074	16588.159375315937	33.718128557511
6	29087	16592.571049632093	21.415452021713
6	29109	16602.098907120155	1.427681497857
6	29172	16627.572774405853	11.358287340998
6	29310	16696.128383019002	7.059279983905
6	29380	16730.161437398516	23.007846291815
6	29437	16753.441671152693	11.825053213537
6	29490	16790.234663038388	8.982428056895
6	29495	16792.128189290814	1.428923820332
6	29502	16803.969017624818	1.829555230774
6	29505	16805.817974588983	3.112251225923
6	29535	16820.278664405956	5.495778138931
6	29582	16836.386548531693	2.886840866647
6	29585	16837.835393245597	13.090588896072
6	29817	16934.591226794709	19.690178271385
6	29880	16971.15824546037	1.38866138719
6	29919	17003.574757121582	4.251378523126
6	29922	17005.193803343442	4.024070899096
6	29927	17006.633126003374	3.094737771956
6	30069	17058.652238174347	41.9351217765
6	30107	17071.996362734777	17.190839650482
6	30142	17083.452858828816	6.796581166939
6	30167	17091.294157793063	3.709041744195
6	30290	17137.578730084869	19.656818356683
6	30463	17217.086985777124	33.114185011137
6	30486	17225.122331348985	12.508362699356
6	30493	17226.836114205785	7.105593296136
6	30499	17230.301712437339	36.618885435497
6	30507	17233.523162435732	7.656419640863
6	30514	17235.06397167015	38.360801125485
6	30650	17286.626968125954	16.910936154986
6	30707	17367.220459142423	3.104163690458
6	30715	17370.796845092133	8.477301797343
6	30807	17420.092150771643	5.221331382357
6	30863	17448.81759841389	1.661212784052
6	30874	17453.244188212818	8.139570406532
6	30915	17467.201852318114	19.373140251875
6	31045	17557.50297387696	14.81051896241
6	31050	17572.585023129328	1.335283845291
6	31160	17648.343924158475	2.370752545614
6	31297	17737.108573639947	2.548136845262
6	31300	17738.490111351381	22.526415822314
6	31422	17826.840168134145	3.872322501543
6	31442	17834.730319870624	1.490215787103
6	31474	17848.272451716457	7.112318361687
6	31515	17870.965551460027	49.816091833738
6	31570	17895.338755512382	5.04229787152
6	31645	17931.410391148665	1.496849593706
6	31655	17957.346535451282	1.483904681541
6	31832	18027.583135552436	24.501442759734
6	31850	18034.416934391554	2.308833992979
6	31860	18037.592348453	20.427048344851
6	31890	18070.760015527226	16.340374124549
6	31982	18148.639666659859	2.369486032831
6	31997	18159.724058977656	2.870013866156
6	32002	18161.615901823111	4.237010707514
6	32032	18202.141568232506	1.537609645352
6	32070	18230.898379956726	1.331871931441
6	32080	18245.806204744679	2.281050161808
6	32117	18272.21451666678	2.902415128288
6	32159	18292.287050197242	2.568023349167
6	32265	18368.619059395669	1.509492028877
6	32270	18384.270250285899	1.308054547943
6	32290	18422.315237934361	8.593732645641
6	32360	18491.38227879119	1.706611846387
6	32459	18525.426715570398	13.931028242846
6	32466	18527.402075730719	7.782519696543
6	32507	18541.324837699615	16.125956544168
6	32510	18543.277831080825	14.415729326595
6	32535	18571.333454901729	6.231621546299
6	32617	18630.563625078015	6.412507078052
6	32752	18673.638631308602	25.535043378992
6	32755	18675.138017304951	41.513857799512
6	32800	18690.994046497593	11.362179174286
6	32910	18763.900002692862	1.94761191234
6	32915	18770.434599534811	1.702530361153
6	32934	18778.725102245273	1.649392696024
6	32960	18798.615762392606	1.589110320807
6	33017	18820.562605431795	8.224842132866
6	33050	18861.61608528164	4.181167356338
6	33094	18890.805197470402	4.575120560271
6	33105	18896.518561943286	1.779320758022
6	33110	18898.364700557634	16.169531872622
6	33120	18905.320836360448	4.471250063907
6	33246	18977.975044430531	2.256104903969
6	33359	19015.865583761325	4.417854838796
6	33425	19052.099195933403	3.717462339621
6	33440	19066.529430262077	1.724069652334
6	33550	19134.958492393785	25.04576108103
6	33615	19198.476341585089	3.023545266223
6	33770	19306.523569304931	4.37756514125
6	33790	19324.174622671493	3.202526382213
6	33860	19351.51983926118	6.786382403147
6	33865	19369.045392809663	1.749047704786
6	33875	19380.600413923769	1.310977545008
6	33972	19452.616558329188	1.963710412197
6	33975	19454.093028994822	1.720147282406
6	34012	19481.769633738488	1.510594023019
6	34040	19493.09947819245	11.872503737537
6	34045	19506.458538660445	1.49064298775
6	34077	19518.301665906406	6.739273878852
6	34179	19572.525701849539	14.573769551235
6	34186	19574.404154490311	16.673397951575
6	34195	19579.092392551531	12.67005936996
6	34257	19622.614990999211	9.473330331962
6	34269	19625.323694703389	2.60722806635
6	34297	19634.428535942207	11.377490930074
6	34379	19699.673154563938	14.371351223999
6	34436	19717.619038973287	11.781224446563
6	34477	19731.837841730289	27.426231277514
6	34495	19741.23431170427	36.199129512047
6	34574	19782.446789316828	16.186318999923
6	34619	19796.545332648063	2.859311842077
6	34630	19800.995414992811	30.472389985952
6	34852	19919.851848611065	1.977520991763
6	34899	19942.785301889327	8.275371724209
6	34929	19958.96603160761	7.747736593096
6	34979	19974.947599665746	16.066949943853
6	35055	20006.151785587695	2.869430199473
6	35087	20021.455388279207	1.68100776961
6	35120	20034.175554951575	3.75658073606
6	35236	20072.402843456462	19.58322745905
6	35272	20084.859654511445	42.977597926607
6	35307	20098.252909137192	9.559598221427
6	35317	20103.482363205011	9.576170190331
6	35419	20192.879321036878	1.897154263966
6	35560	20297.395362005015	1.805868074112
6	35605	20350.408938523678	1.656509711966
6	35722	20388.852097019477	11.421335760125
6	35735	20394.040407095587	2.011542051287
6	35825	20447.256266322887	1.22773601599
6	35909	20486.087628034981	17.126348310635
6	35915	20489.398597149844	18.454106949409
6	35920	20491.838406733692	24.856808997111
6	35935	20499.318052867104	3.617495921326
6	36045	20591.373055655204	1.942859429307
6	36180	20691.777882347209	5.259864447426
6	36185	20696.78521771758	1.626522182859
6	36204	20713.298840865137	5.083308947832
6	36342	20798.206051607734	4.946216931515
6	36350	20802.020988087167	32.189775914468
6	36370	20833.797418889072	7.127716704052
6	36415	20859.283753263385	1.857375994325
6	36432	20871.894208274855	6.758382753203
6	36515	20906.977146449508	6.542001996934
6	36525	20927.991658800249	1.722726088949
6	36550	20942.100786017817	11.02985939726
6	36580	20974.567319004655	1.911328717836
6	36655	21018.560656876477	15.495713228427
6	36660	21020.272419310076	1.405747631937
6	36735	21067.753132162369	1.612223198079
6	36818	21112.622947755294	9.705514139891
6	36841	21121.405806179182	10.429567321673
6	36870	21135.186097910535	19.249142223824
6	36906	21151.930152968223	22.197226111121
6	36922	21158.317022959048	6.889772333972
6	36957	21174.683163550522	8.111933843354
6	37020	21206.646659557294	9.769748023308
6	37254	21315.824940517403	10.356506855056
6	37291	21326.602105765462	14.515508949392
6	37324	21339.216950900087	14.767834286624
6	37344	21345.753059997552	47.025015492185
6	37350	21348.863610453115	4.157068849638
6	37367	21357.767425725967	2.320457150648
6	37420	21407.241483825343	8.261316460442
6	37460	21446.335124382527	1.75388008263
6	37520	21483.087967924196	4.11798557143
6	37550	21512.607041866212	1.218542067707
6	37560	21534.698175702963	1.476369808614
6	37620	21567.882653828925	6.570831307501
6	37705	21630.716211007697	10.137878912861
6	37750	21671.035094001938	8.742007740516
6	37757	21682.825976064141	1.449650881998
6	37765	21686.754228515542	5.218669308217
6	37795	21700.388763098809	2.356305341615
6	37805	21704.946752597866	3.27020911083
6	37810	21709.431174362721	1.963214202598
6	37892	21782.065517724271	19.016487950307
6	37955	21819.613746760453	6.146301056805
6	37994	21838.042392882183	9.279357413017
6	38010	21844.344185243956	7.488427784411
6	38080	21876.946043471667	7.88101796221
6	38115	21901.821554139391	4.69973757909
6	38175	21923.79345834383	20.058865283708
6	38210	21956.876689086146	7.836707408628
6	38320	22048.745441539299	1.200780573115
6	38375	22095.029149099829	12.744259583731
6	38442	22148.073516584934	7.267310124043
6	38447	22149.867688387447	2.640310722626
6	38455	22162.344308418961	1.73812330626
6	38505	22188.227804221585	11.313655816095
6	38515	22193.815012816207	1.212460764684
6	38555	22234.718315051417	6.924485038388
6	38575	22252.795454093664	1.527095216326
6	38585	22260.148906455214	6.164159788004
6	38602	22274.102436944381	1.49160462264
6	38635	22295.692737918212	16.817368533553
6	38640	22304.437083064923	1.535445746221
6	38690	22347.493599456778	1.388114121184
6	38787	22405.557011499371	17.979011445576
6	38857	22428.386181578301	18.428621713535
6	38897	22448.923553222899	17.908186633486
6	38900	22450.29060358118	2.108165040885
6	38907	22454.588364811037	1.872883231193
6	38929	22461.690175159664	3.904987977183
6	38962	22474.423066954516	21.628414170663
6	38992	22484.84159786789	10.266833589999
6	38995	22486.379265439271	23.131682375561
6	39009	22491.37227783942	2.801611283932
6	39070	22517.982661796581	19.063760255317
6	39110	22553.743323062655	3.809364554308
6	39137	22566.069415902519	1.462588329799
6	39182	22582.614106255996	13.558980312034
6	39255	22617.605649497308	23.961148035235
6	39285	22629.064916770074	7.750044660976
6	39305	22640.165376544626	3.785843355999
6	39340	22653.54601196731	11.69320037136
6	39385	22672.654182707144	5.740105654645
6	39410	22685.614189099171	31.529225902066
6	39482	22806.354711166673	1.620900776796
6	39555	22846.990044587862	5.647633472732
6	39595	22876.400677537651	1.537266706862
6	39600	22878.073186386642	1.345334419981
6	39612	22889.14901196148	5.182475177416
6	39709	22933.265548819892	5.313652438193
6	39715	22937.073926327221	11.514039925387
6	39725	22948.485812450118	1.43195468802
6	39735	22975.243389640664	3.226796076948
6	39747	22991.175208297483	4.347168654133
6	39819	23014.880958144814	18.188659362608
6	39825	23017.845867992453	15.371066393083
6	39885	23073.002198931386	1.904427575506
6	39950	23118.971871580772	4.896573462709
6	39962	23122.202686147492	2.275518920263
6	40042	23159.466310014988	3.838468748128
6	40050	23165.436749787993	1.949544294551
6	40069	23171.562703643686	3.948359769358
6	40135	23198.044266225477	31.69032024475
6	40295	23261.264036466573	51.695344633023
6	40340	23279.777810209868	1.537995077447
6	40417	23307.13610756973	6.375298942026
6	40485	23346.699225686709	4.046970213706
6	40495	23374.984600695922	1.895258242823
6	40562	23451.335872150572	1.457532895729
6	40650	23495.834265613888	14.22374837337
6	40685	23519.740679894885	1.271639582328
6	40760	23557.915763857824	17.631671251273
6	40997	23643.825363822509	11.761375466337
6	41002	23645.353103239317	43.173146810711
6	41012	23658.451233282411	1.317175966315
6	41015	23659.700876502418	2.108512132535
6	41062	23677.653807049287	1.296177888289
6	41236	23751.820256575901	50.419822201163
6	41242	23755.14315192565	28.345961335281
6	41254	23759.177373957404	19.173515589709
6	41345	23790.288501325954	17.436196046445
6	41350	23794.441364563243	1.775483837351
6	41482	23861.336997536706	12.669262579344
6	41485	23863.122582925061	40.680352362312
6	41502	23871.681980570629	1.764184357412
6	41535	23897.922849025283	1.583787803538
6	41589	23916.385275875808	14.817042728327
6	41615	23928.253915275677	26.373271921034
6	41625	23945.565162663982	3.856535722483
6	41635	23952.866608593066	3.072104253235
6	41645	23959.805467454067	5.816606226586
6	41707	23996.608761369249	3.904703705623
6	41717	23999.892626952533	22.762758235781
6	41829	24049.188903434738	38.306675301598
6	41867	24062.163069893956	10.806391149442
6	41872	24063.598646982364	46.247457214381
6	41904	24083.059379070807	11.630906676891
6	42004	24141.840208585351	1.906911274541
6	42075	24176.714751365422	10.772295395316
6	42135	24216.321228960054	9.996402485615
6	42145	24221.61436127203	2.82656377264
6	42162	24228.555527037675	2.765396688615
6	42307	24299.589056900692	4.694226409013
6	42337	24312.015746389174	4.594057526626
6	42367	24338.630168783585	2.361158483981
6	42419	24364.18815290628	1.299121618085
6	42455	24391.528918737445	15.936316131331
6	42470	24402.95837020133	8.668660673626
6	42477	24408.227372715711	1.232664858364
6	42534	24429.522162468926	16.461338981757
6	42539	24430.885911448867	10.802762778316
6	42619	24458.743251925701	7.567639168601
6	42627	24461.909015695373	23.329638862495
6	42657	24474.269353279958	7.829266313649
6	42707	24499.170545849811	78.970693670928
6	42714	24501.052251679312	17.672947998789
6	42825	24545.885742667659	26.734318866648
6	42844	24551.524397710758	4.936641679419
6	42887	24614.341272122698	1.616738658398
6	42895	24618.054690740734	7.40253062195
6	42960	24691.975697770337	11.180635323363
6	43065	24738.938880880347	8.773831032498
6	43080	24747.158794983665	1.498693192005
6	43095	24756.095947613475	1.636078762636
6	43152	24793.414956464393	2.189285951753
6	43195	24812.022343538877	8.925749558884
6	43232	24833.934786648767	9.617224362964
6	43262	24855.318266965851	1.848410605267
6	43265	24856.906197616115	1.71328166424
6	43277	24861.749428927862	1.689578891405
6	43445	24968.993979334056	4.592959753526
6	43490	25003.697667090439	3.109467767222
6	43547	25045.786899315712	6.334957905872
6	43755	25168.175613567693	15.560501118757
6	43802	25197.605104332437	13.934862813726
6	43815	25202.337209887159	17.473435703149
6	43969	25289.103889682016	31.386008181339
6	44002	25303.194872209776	4.376566117435
6	44009	25304.652827122781	23.818089482915
6	44017	25308.26178171483	18.857007499264
6	44035	25316.280868542837	1.742650830187
6	44082	25344.53321337943	1.894319574236
6	44100	25353.732037253617	2.534724156812
6	44135	25377.70794624235	3.494333629353
6	44199	25413.027060804371	3.308355725855
6	44302	25473.17698313486	6.665805244673
6	44347	25497.801231127971	1.766430193248
6	44394	25526.118734262912	2.591469889736
6	44407	25532.784632194449	10.109291625402
6	44445	25544.623962592183	10.754763735409
6	44527	25596.340640753384	21.554168199512
6	44562	25619.133801345732	3.011738525601
6	44635	25651.049961696565	13.398190429707
6	44650	25656.206267332799	1.615012288349
6	44655	25672.066411390163	1.677719664387
6	44750	25728.296647543633	8.921797804508
6	44772	25741.544058591353	10.364070841316
6	44869	25790.040807294585	4.976514650681
6	44892	25798.503921490461	18.537402927891
6	44957	25829.171402849648	2.730194173699
6	44967	25833.351542013235	1.374338760599
6	45062	25915.931412943538	1.563914609142
6	45067	25917.686519516531	1.773456844874
6	45200	26020.622306742605	5.838258738769
6	45290	26076.355224327036	3.002122652342
6	45422	26158.916880043625	23.265321722253
6	45450	26173.951701193932	2.575639324854
6	45801	26354.268255565839	5.24476565832
6	45822	26361.683512563597	5.665521374262
6	45829	26363.000459070097	22.53788723075
6	45835	26366.238215210627	22.55602703125
6	45850	26386.039201355047	1.92990212068
6	45910	26433.291727223442	1.530388155393
6	45985	26481.815404784255	8.224474875486
6	46060	26509.988277185156	8.949906774576
6	46127	26546.372052030862	17.053971115934
6	46347	26720.908056840799	2.292679201303
6	46435	26762.681190288025	1.229001803882
6	46527	26833.917910675191	11.367668995905
6	46554	26842.502911768298	1.718900473397
6	46590	26873.28973089283	7.060449901759
6	46595	26880.648793276088	1.351535136253
6	46610	26894.915792327547	1.708420187794
6	46615	26898.368925885884	1.773277838342
6	46670	26943.81339701297	9.510998549746
6	46732	26980.043160523142	10.614529458763
6	47190	27186.843350409749	66.678496609716
6	47196	27189.467027862217	25.142303503718
6	47201	27191.222146074321	103.24999819703
6	47204	27193.032067670148	91.796389325138
6	47212	27196.65415290821	71.727792704925
6	47225	27201.514122599769	84.470025010663
6	47275	27250.845420948399	10.139025364443
6	47309	27268.625097467755	12.268296491808
6	47404	27309.527441799346	12.780547153993
6	47430	27320.987682392036	15.470090270346
6	47440	27327.26722871824	3.071176591484
6	47475	27376.311570945153	1.381857609004
6	47482	27379.128882556343	1.607529252209
6	47495	27387.83191380813	1.256945623271
6	47595	27464.416659182251	6.415820450876
6	47635	27492.491551355917	1.793768443912
6	47682	27534.332660604285	7.883585563227
6	47700	27547.26429266511	4.816208498737
6	47772	27579.906782454881	25.890037617373
6	47807	27590.631263659033	5.533831420715
6	47810	27592.192404651525	3.346374109348
6	47852	27618.68572825205	9.34452963807
6	47887	27658.336507250525	1.727337463014
6	48064	27779.276292569091	22.064540427228
6	48087	27787.487577947874	34.128839596982
6	48100	27792.39503702232	47.704539663966
6	48115	27805.686095914388	5.565910288559
6	48185	27875.972041487043	3.513972234102
6	48222	27901.518245784408	8.750204644155
6	48297	27931.337462887985	5.251375014971
6	48342	27946.627572535872	15.819890444449
6	48385	27973.743233842415	5.713801372501
6	48512	28050.332620844109	4.84676555221
6	48592	28108.092617723756	1.412656670064
6	48640	28131.459333644233	1.520244183205
6	48675	28154.216045398158	1.275177944638
6	48702	28169.717294591759	1.556213731132
6	48717	28175.222063483296	2.431956492245
6	48775	28199.421176979451	8.929510273786
6	48810	28213.394919343369	1.884430829436
6	48822	28227.417257499592	1.814208295569
6	48922	28301.81337689934	4.938740845956
6	48927	28303.777788850383	6.493692191279
6	48965	28321.677530905313	6.442995783734
6	49102	28381.669254286321	33.468041686224
6	49117	28386.059648055504	25.964634344725
6	49129	28388.776219343315	2.654809657236
6	49152	28396.854184684824	48.60494808632
6	49170	28403.554719584729	6.621929768692
6	49192	28409.993214554354	66.505031708396
6	49255	28431.989520251598	1.956544176849
6	49290	28463.603236377889	6.158006642339
6	49335	28498.131060242865	4.33916302661
6	49379	28552.455410299542	3.437964873437
6	49425	28603.91364097648	15.82586814522
6	49502	28646.06790323631	13.853960100433
6	49699	28730.426840925131	18.040446911765
6	49743	28747.145173265513	25.52638584494
6	49752	28751.277137108807	23.323426578929
6	49769	28755.896191728402	32.16442740484
6	49777	28759.442408729818	51.848800034307
6	49787	28763.591766053131	42.16919884194
6	49965	28844.286116921692	2.597127658943
6	49972	28862.328118354473	1.583687974513
6	50107	28925.375448547293	30.576631127414
6	50155	28941.915987885047	6.20751287099
6	50169	28946.301408172099	18.882477693287
6	50175	28949.343189602045	3.118910959066
6	50180	28962.54640556433	1.626992659271
6	50197	28980.460855508885	6.611717958657
6	50327	29029.821945036235	27.018581740135
6	50352	29043.340355517687	35.111890617908
6	50355	29044.935327070737	12.740490343069
6	50380	29062.879879890625	1.557240960933
6	50495	29172.149509339783	1.496459917724
6	50555	29224.4892510647	6.837739728841
6	50635	29278.635056634	7.302908133018
6	50670	29300.684647746001	7.553974784358
6	50690	29351.42250983738	4.414490675633
6	50717	29374.080708989545	11.64890095481
6	50750	29399.231118941474	1.280435440317
6	50755	29408.884127032256	1.399314389937
6	50792	29439.084413639129	4.145249368885
6	50835	29453.632416042359	25.289211735222
6	50884	29473.487820342864	3.799002741708
6	50890	29477.050127414923	31.901671724668
6	50985	29577.642262237625	5.760486866701
6	51084	29625.915257105863	14.721508716749
6	51149	29651.664812867275	6.687879547556
6	51227	29690.182253815795	25.077585999927
6	51367	29743.354208503639	22.01667853977
6	51385	29752.180407623134	30.849484620377
6	51462	29789.110973277701	6.302206614909
6	51472	29800.450327160009	1.520273174532
6	51490	29806.550827371128	5.566918567284
6	51525	29834.089195578946	7.020680110832
6	51537	29844.44226553298	21.777883615981
6	51562	29855.762185688427	11.892719221863
6	51570	29864.326842009835	1.545938985609
6	51640	29954.405807966998	1.585546494834
6	51645	29959.880905699777	1.592259561829
6	51677	29994.905582081034	2.300081864033

