version 2
run Third_exit_5-6-20191017-13:44:17-2020
attr configname Third_exit_5
attr datetime 20191017-13:44:17
attr experiment Third_exit_5
attr inifile omnetpp.ini
attr iterationvars ""
attr iterationvarsf ""
attr measurement ""
attr network ResponseTimeNetwork
attr processid 2020
attr repetition 6
attr replication #6
attr resultdir results
attr runnumber 6
attr seedset 6
param **.Source.interArrivalTime exponential(6s)
param **.jobPriority bernoulli(0.8)
param **.PS.serviceTimeU1 "uniform(1.2s, 2.0s)"
param **.PS.serviceTimeU2 "uniform(2.4s, 2.8s)"
param **.SS1.serviceTime exponential(1.4s)
param **.SS2.serviceTime exponential(2s)
param **.PS.exitProbability bernoulli(0.5)

vector 0 ResponseTimeNetwork.SS1 queueLength:vector ETV
attr interpolationmode sample-hold
attr title "queue length, vector"
vector 1 ResponseTimeNetwork.SS2 queueLength:vector ETV
attr interpolationmode sample-hold
attr title "queue length, vector"
vector 2 ResponseTimeNetwork.QueueU1 queueLength:vector ETV
attr interpolationmode sample-hold
attr title "queue length, vector"
vector 3 ResponseTimeNetwork.QueueU2 queueLength:vector ETV
attr interpolationmode sample-hold
attr title "queue length, vector"
vector 4 ResponseTimeNetwork.sink lifeTimeU1:vector ETV
attr interpolationmode none
attr title "lifetime of arrived jobs U1, vector"
attr unit s
vector 5 ResponseTimeNetwork.sink lifeTime:vector ETV
attr interpolationmode none
attr title "lifetime of arrived jobs, vector"
attr unit s
vector 6 ResponseTimeNetwork.sink lifeTimeU2:vector ETV
attr interpolationmode none
attr title "lifetime of arrived jobs U2, vector"
attr unit s
0	0	0	0
0	487	353.379107612778	1
0	489	354.031367802101	0
0	492	355.017671329935	1
0	494	355.705106160736	0
0	682	466.127013308516	1
0	687	467.990521909258	2
0	689	468.188011750568	1
0	691	469.223088034972	0
0	710	472.941172140612	1
0	712	474.065003259635	0
0	725	478.009580082594	1
0	727	479.009180954491	0
0	730	479.82350267764	1
0	732	480.345316290849	0
0	852	561.704417538233	1
0	854	562.908898589565	0
0	874	568.333745158427	1
0	876	568.503207974361	0
0	1005	656.188754982888	1
0	1006	656.887029098437	0
0	1010	658.846772686296	1
0	1011	662.363362034902	0
0	1025	667.413856452637	1
0	1026	667.472221970107	0
0	1070	687.665536349899	1
0	1071	687.742946931886	0
0	1302	878.69471875034	1
0	1304	878.755089478132	0
0	1385	938.62449157741	1
0	1386	939.235035036983	0
0	1471	988.424907143945	1
0	1476	990.948372460552	0
0	1487	994.032319844299	1
0	1494	998.335326008609	0
0	1581	1108.923632572017	1
0	1585	1109.832856348739	0
0	1616	1120.280747698604	1
0	1620	1121.461915482917	0
0	1904	1257.611091653692	1
0	1907	1259.12925366542	2
0	1909	1260.360463735356	1
0	1911	1260.659443721165	0
0	1914	1260.921868780317	1
0	1916	1261.312252881191	0
0	1919	1262.199948253544	1
0	1921	1263.098957319661	0
0	2247	1463.630098924143	1
0	2249	1463.97373346074	0
0	2273	1470.37585912208	1
0	2276	1471.726740099405	2
0	2278	1471.9306046795	1
0	2280	1471.990168912769	0
0	2354	1502.404893970783	1
0	2359	1504.197854240594	0
0	2367	1506.85167029045	1
0	2372	1508.654708114559	2
0	2376	1509.472691280659	1
0	2381	1511.564196588795	0
0	2447	1535.964036043463	1
0	2449	1536.365519568026	0
0	2525	1567.183200990468	1
0	2526	1570.395131253457	0
0	2879	1779.619537310996	1
0	2881	1780.587438606488	0
0	2884	1781.329924929277	1
0	2886	1781.987409643026	0
0	2889	1782.984341093847	1
0	2896	1785.17032492581	0
0	3130	1928.863206594654	1
0	3131	1929.558719279694	0
0	3375	2111.886649663518	1
0	3379	2112.106742125349	0
0	3500	2170.486743325388	1
0	3501	2172.178410378557	0
0	3525	2181.47872697753	1
0	3534	2184.786093806413	0
0	3682	2244.935881516099	1
0	3689	2248.281375016197	0
0	3692	2248.311758916959	1
0	3696	2251.040336335838	0
0	3890	2365.300168247859	1
0	3891	2366.640758743547	0
0	3933	2377.584882394821	1
0	3935	2377.619996874208	0
0	3938	2379.477664136552	1
0	3940	2379.602964108106	0
0	3956	2385.988938278929	1
0	3958	2386.45255513027	0
0	4199	2584.733385014241	1
0	4201	2584.922445857503	0
0	4262	2607.332327825732	1
0	4266	2608.148796995862	0
0	4381	2712.983110571068	1
0	4386	2715.144357244466	0
0	4389	2715.930642372717	1
0	4392	2717.64923798607	2
0	4394	2718.537807007977	1
0	4399	2719.146366021456	0
0	4584	2883.377105314262	1
0	4586	2884.096478569047	0
0	4597	2888.402178256006	1
0	4599	2889.078934083363	0
0	5075	3370.543689534128	1
0	5081	3377.369473928959	0
0	5204	3458.310537807018	1
0	5206	3458.37505469592	0
0	5316	3505.344075136011	1
0	5320	3505.858370832614	0
0	5323	3506.636497152349	1
0	5326	3508.058641619919	2
0	5336	3512.149329779256	1
0	5338	3512.997425434588	0
0	5341	3513.3327043244	1
0	5343	3513.372770026499	0
0	5625	3706.830750710057	1
0	5626	3708.041886031552	0
0	5630	3709.413233908563	1
0	5631	3709.621398946909	0
0	5635	3711.501848628638	1
0	5636	3711.58465632795	0
0	5647	3714.506349049682	1
0	5649	3715.413348790348	0
0	5755	3795.283585746402	1
0	5756	3796.077028395181	0
0	5765	3798.782135084031	1
0	5769	3803.313922433598	0
0	5780	3805.857846449089	1
0	5781	3806.770080675315	0
0	5812	3816.709678138549	1
0	5816	3817.991348326853	0
0	5969	3912.52515112517	1
0	5976	3916.333672087377	0
0	6007	3925.61390525039	1
0	6009	3925.86236442751	0
0	6106	3978.122065892955	1
0	6111	3979.489268649672	0
0	6185	4007.839330993856	1
0	6186	4012.965386507269	0
0	6290	4118.314368117125	1
0	6291	4118.463822402657	0
0	6334	4141.391534878998	1
0	6336	4141.731312793115	0
0	6835	4495.249796575167	1
0	6836	4497.572647167714	0
0	7150	4655.259060559594	1
0	7156	4656.623591112115	0
0	7201	4680.433919607729	1
0	7204	4681.874970867738	2
0	7209	4684.042196614797	1
0	7211	4684.68009956446	0
0	7216	4684.998601941273	1
0	7218	4685.17610437879	0
0	7367	4762.21053607616	1
0	7369	4762.475141033092	0
0	7520	4861.271514893629	1
0	7521	4863.118819158082	0
0	7530	4865.920229009097	1
0	7531	4866.256495146327	0
0	7647	4978.028944306834	1
0	7649	4978.66186853918	0
0	7747	5031.886443427517	1
0	7751	5033.767305330409	0
0	7783	5041.574928025193	1
0	7785	5042.12767129884	0
0	7788	5043.524340298995	1
0	7790	5044.281070079939	0
0	7821	5054.304176744298	1
0	7823	5055.555865866814	0
0	7935	5138.295987869285	1
0	7937	5138.321307477318	0
0	7982	5155.210923283034	1
0	7984	5156.368302913681	0
0	7987	5156.93502400522	1
0	7990	5158.268986537725	2
0	7991	5158.622363175911	1
0	7994	5159.079175461157	0
0	7997	5160.547874797781	1
0	8004	5163.850491642474	0
0	8509	5587.74319803518	1
0	8511	5588.307441586355	0
0	8606	5636.763070737209	1
0	8608	5637.464317428429	0
0	8682	5663.187417973283	1
0	8686	5664.823186773382	0
0	8922	5788.55667297472	1
0	8924	5789.222728698092	0
0	8999	5817.271398474986	1
0	9001	5817.527062681953	0
0	9034	5827.73718109798	1
0	9036	5827.996461221487	0
0	9041	5829.487122322026	1
0	9043	5830.645935260712	0
0	9175	5897.972194149867	1
0	9176	5898.116782924698	0
0	9222	5927.537797761094	1
0	9224	5927.790174220341	0
0	9234	5930.985968690123	1
0	9236	5932.002108561472	0
0	9390	6040.559791652459	1
0	9391	6040.621260040274	0
0	9449	6058.37230611655	1
0	9451	6058.850009339542	0
0	9469	6064.718089591406	1
0	9473	6065.794716710692	0
0	9617	6174.496363679	1
0	9632	6178.787902749197	2
0	9646	6182.426326448661	3
0	9648	6183.180114977789	2
0	9653	6184.407108464469	3
0	9655	6184.838721455645	2
0	9661	6187.325254959059	3
0	9666	6189.089111271505	4
0	9668	6190.160676351571	3
0	9670	6190.671952064986	2
0	9675	6191.335885262223	1
0	9678	6192.25675380603	2
0	9680	6193.562713502747	1
0	9685	6193.592096785404	0
0	9797	6238.874875097845	1
0	9799	6239.270350832366	0
0	9805	6242.497759186413	1
0	9806	6242.580125726998	0
0	9887	6283.638582850471	1
0	9891	6284.499849591849	0
0	9894	6285.604233691878	1
0	9898	6286.090988373313	0
0	9906	6288.704674229808	1
0	9908	6289.37294981826	0
0	10335	6590.406707266171	1
0	10339	6591.322737298809	0
0	10410	6617.959798483253	1
0	10419	6620.7149441934	0
0	10422	6621.657266244534	1
0	10424	6621.736255262274	0
0	10725	6790.303640660954	1
0	10726	6791.277426265114	0
0	11264	7173.212991734808	1
0	11269	7174.926496806195	0
0	11272	7176.748515078639	1
0	11274	7178.022698674496	0
0	11277	7178.583987523829	1
0	11279	7178.822753157858	0
0	11632	7420.143076142382	1
0	11634	7421.417620869185	0
0	11656	7426.979459168662	1
0	11658	7427.410496422838	0
0	11705	7445.284291453191	1
0	11706	7446.193077287787	0
0	12071	7672.004083189192	1
0	12073	7673.109521977441	0
0	12076	7673.481143583367	1
0	12078	7674.610980767402	0
0	12091	7678.687764279927	1
0	12094	7680.315747165131	2
0	12097	7681.528785701851	3
0	12099	7681.532908707493	2
0	12101	7682.675634523163	1
0	12106	7684.534418388404	0
0	12342	7810.311237989974	1
0	12344	7811.983707878998	0
0	12347	7812.077521415476	1
0	12349	7812.21776224904	0
0	12367	7818.263083173942	1
0	12369	7819.110514231479	0
0	12385	7823.888966511611	1
0	12386	7824.877950254068	0
0	12390	7826.456460781008	1
0	12391	7827.341857500477	0
0	12746	8058.240242121233	1
0	12751	8060.09504926906	0
0	12754	8061.046275253831	1
0	12756	8061.185329239555	0
0	12761	8062.394637359916	1
0	12766	8065.330620683711	0
0	12769	8065.441020972519	1
0	12771	8065.58249732745	0
0	12890	8119.843710467879	1
0	12891	8121.352486638648	0
0	12959	8152.064279454555	1
0	12961	8153.402552531861	0
0	12968	8153.918915496748	1
0	12973	8156.523684152812	0
0	12976	8156.613610506225	1
0	12979	8158.559817564841	2
0	12981	8158.696793107304	1
0	12983	8159.404241618614	0
0	13144	8211.450238661077	1
0	13146	8212.050736343187	0
0	13355	8368.315010805352	1
0	13356	8369.374480713167	0
0	13382	8377.747452616764	1
0	13386	8379.47973045918	0
0	13480	8460.642277746591	1
0	13481	8462.538750165713	0
0	14127	8948.385155593189	1
0	14129	8948.792673022061	0
0	14245	9019.783193698604	1
0	14246	9021.422370414968	0
0	14415	9120.22654435857	1
0	14416	9120.571132802114	0
0	14465	9149.223969651404	1
0	14471	9152.35243012127	0
0	14474	9152.516536565678	1
0	14476	9153.221044456924	0
0	14672	9277.716676305002	1
0	14674	9278.067829182361	0
0	14685	9283.180396571523	1
0	14686	9284.449137594867	0
0	14772	9312.331015562131	1
0	14774	9313.626954253667	0
0	14777	9313.961396669461	1
0	14779	9314.760871688481	0
0	14940	9405.599993567116	1
0	14941	9405.715180302437	0
0	15487	9743.681614993105	1
0	15489	9744.765856754553	0
0	15500	9748.537589968892	1
0	15506	9753.158923147499	0
0	15532	9762.0488496958	1
0	15534	9762.321616037988	0
0	15540	9764.93632803659	1
0	15541	9764.968437816415	0
0	15749	9866.927987671231	1
0	15751	9868.643739281106	0
0	15882	9933.574187573925	1
0	15886	9934.865944806929	0
0	15902	9938.827839858527	1
0	15904	9939.07543290787	0
0	15957	9957.299092285875	1
0	15959	9957.652427101595	0
0	15994	9974.469040072375	1
0	15996	9975.082826082342	0
0	16027	9985.370304306821	1
0	16036	9988.942470419365	0
0	16193	10107.007883916974	1
0	16199	10110.277031354784	2
0	16201	10111.160974916137	1
0	16211	10116.623711419677	0
0	16215	10118.573271076394	1
0	16216	10119.545469908132	0
0	16347	10167.748521205489	1
0	16349	10168.11781063159	0
0	16380	10178.708958274948	1
0	16381	10179.232625466404	0
0	16522	10288.320741737012	1
0	16524	10289.204270239904	0
0	16585	10332.546797620427	1
0	16586	10333.616910974219	0
0	16692	10390.071353773144	1
0	16696	10390.253270976601	0
0	16941	10580.660057899688	1
0	16943	10581.620552838148	0
0	17260	10722.689611270422	1
0	17261	10723.704322705808	0
0	17267	10725.270988500508	1
0	17269	10726.114122955843	0
0	17400	10794.934915186727	1
0	17401	10796.445461934297	0
0	17439	10807.49115065099	1
0	17441	10807.818058164916	0
0	17510	10832.920526048703	1
0	17511	10834.741961971813	0
0	17627	10896.123099112423	1
0	17630	10897.819701532932	2
0	17631	10899.013353795416	1
0	17634	10899.329118091201	0
0	17639	10900.447785880647	1
0	17644	10902.124355586662	2
0	17646	10902.804917095074	1
0	17651	10904.102604913383	2
0	17656	10906.139977562022	1
0	17661	10906.71690601808	0
0	17666	10907.954342103048	1
0	17668	10908.637380853052	0
0	18327	11277.008163335805	1
0	18331	11277.393522385099	0
0	18379	11292.916423204614	1
0	18381	11293.12942037995	0
0	18397	11298.76778417684	1
0	18399	11299.842237906789	0
0	18542	11361.678483980992	1
0	18545	11363.016114448668	2
0	18546	11363.376586386098	1
0	18549	11363.933621679257	0
0	18622	11388.750883543401	1
0	18626	11390.606422557277	0
0	18640	11395.933067495344	1
0	18641	11396.160233457554	0
0	18696	11414.374517661133	1
0	18698	11414.388999624282	0
0	18800	11484.93958955215	1
0	18801	11485.056020594458	0
0	18805	11486.856588078733	1
0	18809	11488.951960961109	0
0	18815	11490.741054837049	1
0	18816	11490.782578945252	0
0	18825	11493.367348250838	1
0	18826	11494.729077268179	0
0	18835	11497.808102592613	1
0	18836	11499.039199414156	0
0	18962	11604.58030988418	1
0	18964	11605.485637671114	0
0	18967	11606.200492242467	1
0	18969	11606.65580961013	0
0	19239	11829.908849373776	1
0	19241	11830.078531233843	0
0	19244	11831.264575169179	1
0	19247	11832.46940434793	2
0	19261	11836.826099700116	1
0	19264	11837.275646579582	2
0	19266	11837.944297938563	1
0	19268	11838.405346189182	0
0	19301	11849.492375903707	1
0	19303	11849.754871455771	0
0	20060	12292.415130183317	1
0	20061	12292.523965041157	0
0	20065	12294.319470738996	1
0	20069	12295.989605795544	0
0	20355	12463.504949030652	1
0	20356	12464.478888638828	0
0	20370	12469.293599683557	1
0	20371	12471.144075282483	0
0	20437	12529.332098478698	1
0	20439	12530.013939198893	0
0	20982	12903.219323829907	1
0	20984	12903.532995215493	0
0	21205	13007.669633926267	1
0	21207	13008.284698116935	0
0	21271	13031.517324747518	1
0	21273	13031.780361491333	0
0	21283	13034.737348629535	1
0	21285	13035.512147148447	0
0	21340	13107.764258567526	1
0	21347	13111.505764390153	2
0	21349	13113.114052896514	1
0	21356	13114.695561158385	0
0	21360	13116.015447072599	1
0	21361	13116.539745757596	0
0	21365	13118.175057552436	1
0	21366	13125.997962796289	0
0	21484	13169.068279611114	1
0	21486	13169.309748039757	0
0	21489	13171.003173445705	1
0	21496	13173.552078865503	0
0	21526	13182.413608362507	1
0	21529	13184.183399990741	2
0	21531	13184.336223769312	1
0	21533	13184.824921299288	0
0	21536	13186.131191213038	1
0	21544	13189.205413446566	0
0	21559	13194.158216845412	1
0	21562	13195.496420780365	2
0	21564	13196.405910307224	1
0	21569	13197.142055614746	0
0	21572	13198.600374658388	1
0	21576	13201.971208528619	0
0	21590	13206.451109147634	1
0	21591	13206.97280825618	0
0	21595	13208.724611164995	1
0	21601	13211.405795802737	0
0	21605	13212.985141648913	1
0	21606	13213.316333490349	0
0	21610	13214.661221814081	1
0	21611	13215.163470953899	0
0	21814	13323.444363964038	1
0	21816	13323.564478731323	0
0	21980	13460.68424685964	1
0	21981	13462.980946948864	0
0	22087	13503.855782467241	1
0	22089	13504.141641760615	0
0	22109	13510.547220570895	1
0	22113	13511.126227879107	0
0	22176	13531.487998836042	1
0	22178	13531.992201430433	0
0	22382	13657.178157034303	1
0	22384	13658.924663404066	0
0	22540	13746.118407475568	1
0	22541	13746.323825225644	0
0	22722	13896.833681357875	1
0	22724	13897.579980256516	0
0	23146	14226.240016854528	1
0	23149	14228.187800475556	2
0	23151	14228.462704665217	1
0	23153	14229.118613082797	0
0	23359	14332.625337208246	1
0	23361	14333.832956039873	0
0	23519	14404.971641074629	1
0	23523	14405.846659451195	0
0	23542	14413.272545844452	1
0	23544	14413.420787067948	0
0	23652	14470.415023491974	1
0	23659	14471.942088991049	0
0	24007	14642.298098893623	1
0	24011	14645.592033036882	0
0	24015	14647.34277147715	1
0	24016	14647.835126211565	0
0	24047	14657.86251882955	1
0	24049	14658.552305551006	0
0	24072	14665.519293056498	1
0	24074	14666.165643968212	0
0	24167	14697.548987311381	1
0	24169	14698.680071160008	0
0	24175	14701.029379500519	1
0	24176	14702.04997946525	0
0	24222	14750.042143751817	1
0	24224	14751.103615723397	0
0	24227	14751.516754342193	1
0	24231	14752.380520998049	0
0	24259	14760.784607234547	1
0	24261	14761.583155500635	0
0	24342	14795.381856384843	1
0	24344	14796.164454109231	0
0	24375	14808.986994666413	1
0	24376	14810.867632803896	0
0	24582	14938.896513340618	1
0	24584	14939.679136332455	0
0	24587	14940.17265301663	1
0	24594	14942.150651150177	0
0	24610	14947.831184389623	1
0	24614	14948.739634379992	0
0	24620	14951.211143288226	1
0	24621	14952.625436648947	0
0	24797	15049.576710617799	1
0	24799	15051.092014183506	0
0	24807	15052.757693051803	1
0	24809	15053.958946660938	0
0	24957	15166.384775846897	1
0	24959	15167.423850037084	0
0	25120	15237.428461438324	1
0	25124	15238.998067193634	0
0	25532	15475.714517221755	1
0	25534	15476.261028023887	0
0	25580	15492.425913651257	1
0	25581	15492.840770082433	0
0	25595	15497.944847433712	1
0	25599	15500.833419019371	0
0	25625	15509.542903755244	1
0	25629	15512.553480187956	0
0	25717	15551.013648495317	1
0	25719	15551.270524508135	0
0	25745	15560.078793210961	1
0	25746	15560.688391429505	0
0	25802	15591.970907404522	1
0	25804	15593.143783008135	0
0	26095	15742.222323192968	1
0	26096	15743.274435969816	0
0	26100	15744.741893693806	1
0	26101	15744.754488077963	0
0	26110	15747.705279869045	1
0	26111	15748.498961209602	0
0	26330	15934.812431044715	1
0	26331	15935.723337519278	0
0	26337	15937.096332470809	1
0	26339	15937.62766304555	0
0	26342	15938.312047466931	1
0	26344	15939.194640899099	0
0	26392	15956.928702343499	1
0	26394	15957.041729754149	0
0	26565	16041.969567260949	1
0	26566	16044.273768762206	0
0	26832	16304.568419729007	1
0	26834	16305.627551665693	0
0	26990	16375.596271910512	1
0	26991	16376.295607892357	0
0	27090	16428.10517136207	1
0	27091	16428.964479789611	0
0	27718	16853.802381287005	1
0	27720	16854.621547643001	0
0	27750	16864.134059309076	1
0	27752	16864.223747507172	0
0	27755	16865.46087336545	1
0	27762	16867.831863693142	0
0	27786	16876.19685918824	1
0	27788	16876.203822095715	0
0	27847	16902.843010175568	1
0	27851	16904.779003163951	0
0	27940	16972.891384690841	1
0	27941	16973.51333676211	0
0	28282	17181.851549294233	1
0	28284	17183.115154827627	0
0	28289	17183.38711252363	1
0	28299	17186.843834199103	0
0	29205	17740.645260290777	1
0	29206	17741.081265111207	0
0	29662	18086.181374775217	1
0	29664	18086.27613626199	0
0	29707	18099.939988118009	1
0	29715	18103.772162804163	2
0	29716	18104.871882189525	1
0	29719	18105.747185164509	0
0	29735	18112.085862918471	1
0	29736	18113.399945615168	0
0	29757	18119.83081510638	1
0	29761	18121.422880897475	0
0	29765	18123.167263887254	1
0	29766	18124.162342807147	0
0	29782	18129.219377227555	1
0	29784	18130.204321961109	0
0	29787	18130.696602462846	1
0	29789	18131.190739538495	0
0	29945	18283.509983300224	1
0	29946	18283.591260855574	0
0	29985	18300.282547393708	1
0	29991	18302.765331201944	0
0	30109	18375.23276155636	1
0	30112	18377.190574729706	2
0	30115	18378.584272329773	3
0	30116	18379.855362826034	2
0	30119	18379.999124894556	1
0	30121	18380.44534408947	0
0	30124	18381.595161923401	1
0	30126	18381.724791763455	0
0	30159	18392.922790405908	1
0	30161	18393.074020781491	0
0	30164	18394.855700425067	1
0	30169	18398.008746213516	0
0	30172	18398.390263281771	1
0	30174	18398.653897324138	0
0	30350	18508.229728550512	1
0	30351	18508.497162277117	0
0	30569	18664.894780448379	1
0	30571	18665.291988771771	0
0	30574	18666.225504165629	1
0	30576	18667.184733009645	0
0	31075	19007.143531155197	1
0	31076	19007.9962835607	0
0	31147	19035.525932582595	1
0	31154	19038.103070719033	0
0	31157	19038.839616541824	1
0	31159	19039.685162887271	0
0	31337	19120.350745801266	1
0	31341	19121.17909787404	0
0	31344	19122.002697492215	1
0	31346	19122.687873329224	0
0	31439	19185.943512277376	1
0	31442	19187.851964816708	2
0	31451	19192.585485097034	1
0	31457	19194.364060196666	2
0	31459	19195.858558257559	1
0	31461	19195.888717485677	0
0	31805	19395.852826565403	1
0	31807	19396.811665177887	0
0	31917	19435.400113635409	1
0	31919	19436.885761736125	0
0	31938	19440.700422215174	1
0	31940	19442.320371951284	0
0	31943	19442.4937643974	1
0	31945	19442.92805507548	0
0	31956	19446.806159130754	1
0	31958	19447.706146084806	0
0	31975	19451.40134491817	1
0	31977	19451.450504302186	0
0	31982	19452.81790325445	1
0	31987	19455.704846817906	0
0	32087	19504.591220288467	1
0	32091	19507.536979217755	0
0	32095	19508.819054465296	1
0	32099	19511.754553257233	0
0	32137	19523.808454095647	1
0	32141	19527.098170389327	0
0	32145	19528.549007626342	1
0	32146	19531.318822260199	0
0	32525	19713.894542124089	1
0	32526	19715.415403578788	0
0	32694	19830.958435056832	1
0	32698	19832.136115813576	0
0	32706	19834.111547965285	1
0	32708	19834.902107236563	0
0	32711	19835.767395936985	1
0	32713	19836.120846682611	0
0	32725	19839.069506418992	1
0	32727	19839.263506481705	0
0	32730	19840.434390796822	1
0	32732	19840.737672377954	0
0	32763	19851.141315860403	1
0	32766	19852.363288503614	2
0	32768	19852.568046864208	1
0	32770	19852.904364844774	0
0	33080	20014.04421826128	1
0	33081	20014.638358418702	0
0	33162	20052.624553824269	1
0	33166	20054.854564099937	0
0	33310	20143.10587655273	1
0	33316	20145.549969398974	0
0	33524	20258.329835238521	1
0	33526	20259.126919318789	0
0	33651	20308.80364252522	1
0	33655	20310.463425819777	0
0	33752	20348.779703229953	1
0	33756	20350.898821862452	0
0	33860	20432.499001590209	1
0	33861	20435.868652568757	0
0	34020	20539.023607816979	1
0	34022	20540.133553418524	0
0	34025	20540.892503556296	1
0	34027	20541.730156208802	0
0	34113	20571.053075364291	1
0	34118	20573.089820309258	0
0	34189	20598.223911470419	1
0	34191	20598.537576634901	0
0	34212	20606.879433531931	1
0	34214	20607.882619714007	0
0	34300	20646.435825179283	1
0	34301	20647.344379876757	0
0	34320	20655.666530880641	1
0	34321	20657.124769147853	0
0	34680	20864.118640658686	1
0	34681	20864.166647978996	0
0	34765	20899.193893052027	1
0	34766	20900.886345712524	0
0	34770	20902.224376540314	1
0	34771	20902.24342992004	0
0	35190	21219.025739898043	1
0	35195	21221.253073722056	2
0	35196	21221.387755986192	1
0	35199	21221.998118145044	0
0	35202	21222.905032905639	1
0	35204	21224.409931208598	0
0	35235	21242.817340482534	1
0	35236	21243.432528707906	0
0	35245	21246.233624838441	1
0	35249	21247.234830276015	0
0	35252	21247.993799704842	1
0	35254	21248.173206980272	0
0	35480	21399.899419655584	1
0	35484	21404.202152435121	0
0	35627	21528.467172400137	1
0	35629	21529.179955631381	0
0	35650	21537.89415047487	1
0	35651	21538.17302703743	0
0	36202	21841.766578493908	1
0	36204	21842.102903831325	0
0	36274	21879.930281033179	1
0	36276	21880.540463273732	0
0	36439	21933.532042992625	1
0	36441	21933.564216937139	0
0	36456	21937.603251762081	1
0	36458	21938.02492107614	0
0	36471	21942.503509142015	1
0	36473	21942.81406637992	0
0	36622	22007.598673265895	1
0	36626	22008.832932999334	0
0	36807	22134.051681035136	1
0	36809	22134.382873104266	0
0	36867	22194.038193714813	1
0	36869	22194.521954914216	0
0	37355	22459.872333946353	1
0	37369	22463.336516147875	0
0	37380	22467.380441130225	1
0	37381	22467.843322430683	0
0	38190	23053.062461299933	1
0	38191	23057.081857447194	0
0	38195	23058.535248772668	1
0	38196	23058.618148693644	0
0	38540	23227.344790444369	1
0	38541	23227.909765161682	0
0	38687	23373.349895125568	1
0	38689	23374.049885040353	0
0	38702	23378.448610468521	1
0	38704	23378.732012492841	0
0	38722	23385.103471178128	1
0	38726	23385.679580964132	0
0	38751	23393.849994403436	1
0	38755	23394.163769879541	0
0	39199	23665.960460287966	1
0	39203	23666.426293757832	0
0	39276	23690.143307524995	1
0	39281	23692.491897178342	0
0	39330	23742.024983226075	1
0	39331	23748.196825283755	0
0	39367	23760.925216831761	1
0	39370	23762.243732147599	2
0	39371	23763.196305063886	1
0	39374	23763.271800833223	0
0	39380	23766.288068841358	1
0	39381	23767.092794033925	0
0	39422	23779.307876763346	1
0	39424	23779.556039619647	0
0	39442	23785.660328466857	1
0	39444	23786.168659248383	0
0	39675	23889.070318951884	1
0	39681	23890.001055859571	0
0	39694	23894.002639027151	1
0	39696	23894.928831917162	0
0	39699	23895.493611140015	1
0	39701	23896.616706555337	0
0	39704	23896.83668104394	1
0	39707	23898.295218634444	2
0	39709	23898.641028053612	1
0	39711	23898.954941073255	0
0	39835	23988.419027194945	1
0	39836	23988.8520984963	0
0	39958	24040.138195232393	1
0	39960	24041.454495579618	0
0	39963	24041.570517835298	1
0	39965	24042.746421996377	0
0	39968	24042.815427275093	1
0	39971	24044.089348062964	2
0	39973	24044.663038362356	1
0	39975	24044.718943876146	0
0	39978	24045.297016538957	1
0	39983	24047.942959839612	0
0	39986	24048.180116358118	1
0	39989	24049.696872218976	2
0	39992	24051.518009121062	3
0	39994	24052.994746935257	2
0	39997	24053.456448215337	3
0	39999	24054.120470424276	2
0	40002	24055.079874010847	3
0	40004	24056.238149274906	2
0	40006	24056.270781727386	1
0	40011	24056.77873838194	0
0	40132	24125.961644225165	1
0	40135	24127.5602721553	2
0	40136	24128.365042303467	1
0	40139	24128.666744003284	0
0	40337	24223.366302675257	1
0	40339	24224.917748504881	0
0	40542	24345.086433471336	1
0	40546	24348.949127468855	0
0	40732	24447.259919075492	1
0	40734	24447.75503329419	0
0	40752	24453.063393387395	1
0	40755	24454.875407039571	2
0	40756	24455.093674148319	1
0	40759	24455.460239350468	0
0	40839	24481.628697679234	1
0	40841	24482.593705112808	0
0	40900	24534.043867611454	1
0	40901	24534.945600764376	0
0	40925	24550.399376789461	1
0	40926	24550.787628731043	0
0	41245	24709.328912669854	1
0	41246	24710.516559345435	0
0	41387	24802.011633934047	1
0	41394	24803.860883515615	0
0	41435	24853.35173384762	1
0	41436	24855.565824672749	0
0	41445	24858.261260930991	1
0	41446	24858.997220296949	0
0	41462	24863.630736089661	1
0	41466	24867.70217133808	0
0	41877	25127.950089812927	1
0	41879	25129.589328185701	0
0	42330	25432.152410451792	1
0	42331	25432.245870041382	0
0	42445	25492.676795153892	1
0	42456	25495.216692025326	0
0	42532	25568.186507421982	1
0	42536	25571.416044565906	0
0	42580	25588.500232883645	1
0	42581	25589.379721997515	0
0	42604	25596.060270695039	1
0	42606	25597.247844009368	0
0	42632	25605.500931027928	1
0	42637	25607.209076830769	2
0	42639	25607.501605279225	1
0	42641	25608.363335455653	0
0	42657	25613.932644227358	1
0	42661	25615.536627224145	0
0	42779	25726.091409665682	1
0	42781	25726.704168213773	0
0	42997	25848.82374414565	1
0	42999	25849.519444873602	0
0	43002	25850.436221071947	1
0	43004	25850.961400932326	0
0	43012	25853.45425113799	1
0	43016	25853.713551483796	0
0	43117	25892.313736197169	1
0	43119	25892.517660806891	0
0	43127	25895.631200155618	1
0	43131	25897.447127645957	0
0	43430	26088.16510881296	1
0	43431	26091.063902647487	0
0	43607	26245.61443283351	1
0	43612	26246.904026123489	2
0	43614	26247.460252657531	1
0	43626	26252.604335080441	0
0	43650	26263.611124719645	1
0	43651	26264.617892115292	0
0	43895	26430.456323112674	1
0	43896	26430.555682707436	0
0	44355	26705.670761827114	1
0	44356	26707.057090851212	0
0	44382	26715.653042766821	1
0	44384	26715.921823175443	0
0	44392	26719.227096830677	1
0	44394	26720.203462314898	0
0	44430	26739.742525600039	1
0	44431	26740.597596508913	0
0	44587	26851.49739823982	1
0	44591	26853.448995895193	0
0	44622	26863.396371557444	1
0	44624	26864.476951751302	0
0	44778	26918.372999922428	1
0	44780	26919.015921172897	0
0	44806	26927.461044755261	1
0	44808	26927.706538422998	0
0	44833	26935.304024989401	1
0	44837	26936.340054576458	0
0	44848	26940.441944932063	1
0	44850	26941.760237862873	0
0	44853	26942.252575701718	1
0	44855	26943.41927158668	0
0	44858	26943.901287242268	1
0	44860	26944.340328426647	0
0	44886	26953.411192914715	1
0	44891	26955.451665033748	0
0	44901	26957.992765509581	1
0	44903	26959.055811807755	0
0	45035	27036.604160105185	1
0	45036	27037.220269105664	0
0	45042	27038.973745595372	1
0	45045	27040.239771635352	2
0	45046	27042.858867673442	1
0	45049	27043.23182422033	0
0	45185	27114.723449742368	1
0	45186	27115.354805676405	0
0	45505	27261.818102728891	1
0	45506	27263.978154737013	0
0	45535	27282.104199464998	1
0	45536	27282.468165264247	0
0	45650	27350.182380335626	1
0	45651	27352.722139363182	0
0	45740	27411.103893074145	1
0	45741	27411.530033259722	0
0	46000	27636.057996666874	1
0	46001	27637.122497052481	0
0	46005	27638.38452364259	1
0	46006	27641.130259120841	0
0	46205	27777.725306790675	1
0	46209	27777.932194570532	0
0	46219	27781.009457108561	1
0	46223	27782.369106747219	0
0	46226	27782.863507520031	1
0	46228	27783.905521621311	0
0	46264	27795.424751314517	1
0	46269	27796.907207223763	0
0	46435	27915.474470174993	1
0	46436	27915.770927203761	0
0	47020	28362.137826753752	1
0	47021	28362.302391732	0
0	47030	28365.17575350225	1
0	47031	28367.026051337806	0
0	47205	28471.230844564539	1
0	47206	28473.357570412456	0
0	47367	28601.705899771934	1
0	47369	28602.21364746904	0
0	47805	28885.722009484348	1
0	47806	28887.286976830754	0
0	47810	28888.95021725716	1
0	47811	28889.116111934918	0
0	47944	28930.843779251154	1
0	47946	28931.065641480812	0
0	47951	28932.490130455035	1
0	47953	28933.066420317564	0
0	47956	28934.17452640644	1
0	47958	28934.547597595278	0
0	47977	28941.575484763446	1
0	47986	28943.82665399033	0
0	48177	29016.8505751909	1
0	48181	29017.587991207183	0
0	48204	29024.783558585427	1
0	48206	29025.525790959833	0
0	48337	29088.875486128577	1
0	48340	29090.518724122257	2
0	48345	29093.226166237439	3
0	48349	29094.039306710352	2
0	48351	29094.147725695852	1
0	48354	29094.874818161965	2
0	48358	29095.329022971132	1
0	48360	29096.193722956476	0
0	48366	29098.281617754042	1
0	48371	29100.031664450888	0
0	48442	29123.694482160635	1
0	48444	29123.92696564517	0
0	48465	29131.909090329424	1
0	48466	29135.107387765789	0
0	48470	29136.341360569665	1
0	48471	29138.042102071729	0
0	48480	29140.685708901372	1
0	48481	29142.54053091109	0
0	48630	29269.262675326978	1
0	48631	29270.043721784715	0
0	48680	29292.595289767196	1
0	48681	29298.037217850474	0
0	48742	29327.829268096073	1
0	48744	29327.93965771096	0
0	48884	29379.480197056596	1
0	48887	29380.743356015188	2
0	48891	29382.14897042602	1
0	48895	29382.355560178386	0
0	49030	29440.377798627174	1
0	49031	29441.053501728815	0
0	49100	29510.101859237588	1
0	49101	29512.44429895681	0
0	49155	29551.165437036308	1
0	49156	29552.36818813302	0
0	49450	29683.571581227168	1
0	49451	29683.900107985714	0
0	49460	29687.431059213521	1
0	49461	29688.299540855976	0
0	49467	29690.051719855944	1
0	49470	29691.897094584311	2
0	49471	29695.010014390882	1
0	49476	29697.468686716942	0
0	49480	29699.433396970605	1
0	49481	29702.373146227376	0
0	49830	29908.583672160463	1
0	49836	29909.583263679738	0
1	0	0	0
1	779	496.805019639952	1
1	784	499.461812889062	0
1	967	640.281136832919	1
1	979	645.37362669215	0
1	1680	1143.720246078431	1
1	1684	1144.57082862025	0
1	2300	1481.060269644399	1
1	2301	1484.459424256384	0
1	2712	1688.132047868272	1
1	2714	1688.76360178872	0
1	2942	1802.12008141423	1
1	2944	1802.270243152426	0
1	3030	1837.242956212964	1
1	3031	1837.385355236959	0
1	5555	3650.566724121335	1
1	5556	3654.011688715576	0
1	5560	3655.774837448246	1
1	5564	3656.427825474623	0
1	6045	3953.731472368884	1
1	6046	3956.094347618142	0
1	6050	3957.525307759823	1
1	6054	3963.508202714826	0
1	8582	5630.684885757428	1
1	8586	5630.871214029492	0
1	9727	6210.594490380962	1
1	9729	6210.860132337019	0
1	10540	6685.258911169771	1
1	10546	6687.503516118607	0
1	10905	6911.432627896038	1
1	10906	6911.466682664867	0
1	11392	7215.280288477373	1
1	11397	7216.598043455873	2
1	11401	7217.329470619832	1
1	11403	7217.641409845377	0
1	16650	10363.738354934164	1
1	16651	10366.968397681198	0
1	17052	10618.130570046565	1
1	17054	10618.255832075293	0
1	18260	11245.979853109348	1
1	18261	11246.139629247985	0
1	20667	12719.432322104878	1
1	20670	12721.175775430023	2
1	20671	12723.112464439964	1
1	20676	12724.331992432283	0
1	20679	12724.399086903317	1
1	20683	12724.658373428075	0
1	20717	12736.65889095301	1
1	20734	12742.341426341732	0
1	21725	13273.869572672143	1
1	21736	13276.435625741404	0
1	21840	13333.369907342593	1
1	21841	13333.94231178371	0
1	22157	13526.443956947068	1
1	22161	13526.763082594197	0
1	22164	13527.813664068582	1
1	22168	13528.946821074034	0
1	22204	13540.328014346512	1
1	22209	13542.191037046012	0
1	23190	14242.405248961014	1
1	23191	14245.620737136841	0
1	23195	14247.374401483067	1
1	23201	14250.594329013467	0
1	24122	14682.703674255381	1
1	24124	14683.70386097356	0
1	24129	14684.556880824896	1
1	24131	14685.825079647064	0
1	24995	15179.220047905555	1
1	24996	15179.394649629883	0
1	25041	15192.649382134371	1
1	25048	15195.587815275496	0
1	25214	15304.601551168398	1
1	25217	15305.962026502364	2
1	25219	15306.684593506433	1
1	25222	15307.508287079804	2
1	25225	15309.028545443513	3
1	25226	15309.204977808512	2
1	25229	15309.886325660128	1
1	25232	15310.820899432703	2
1	25234	15312.165364707595	1
1	25237	15312.401949093855	2
1	25239	15313.085014979316	1
1	25242	15314.204217488869	2
1	25249	15316.177190462597	1
1	25251	15316.628625873859	0
1	25265	15321.608255787557	1
1	25276	15324.815121537368	0
1	26210	15821.186870496091	1
1	26211	15821.293767249282	0
1	28382	17217.256195593143	1
1	28386	17217.67504057123	0
1	30202	18407.044985895613	1
1	30208	18408.082337970617	0
1	32470	19688.558942054346	1
1	32471	19688.987501537608	0
1	32857	19885.236681649564	1
1	32860	19886.951628292641	2
1	32864	19887.520065157724	1
1	32866	19887.686919959264	0
1	33577	20276.940050053625	1
1	33579	20277.866853340169	0
1	34815	20918.686665326931	1
1	34816	20919.560423244037	0
1	36340	21900.902968410772	1
1	36341	21901.241219762811	0
1	36350	21904.631344814883	1
1	36351	21905.680089613896	0
1	36369	21909.642203156006	1
1	36371	21911.407976575307	0
1	36379	21913.499573829126	1
1	36399	21920.948717039141	0
1	38330	23154.818556829061	1
1	38335	23157.355624931668	2
1	38339	23160.268555871404	1
1	38342	23161.663107912513	2
1	38346	23162.748353316043	1
1	38349	23163.286222275617	2
1	38351	23163.352963878068	1
1	38355	23164.525846288315	0
1	38855	23458.589613178478	1
1	38856	23460.051874542092	0
1	39639	23875.847664631957	1
1	39641	23876.103875345163	0
1	42225	25329.958437876978	1
1	42236	25335.007308573323	0
1	43300	26020.814382396806	1
1	43301	26026.639669501799	0
1	43310	26029.661303262989	1
1	43311	26030.529036965656	0
1	43710	26286.492673813133	1
1	43714	26287.87837413219	0
1	43940	26444.127659369492	1
1	43941	26444.83879090927	0
1	44225	26641.251990038858	1
1	44226	26643.306326451244	0
1	44555	26841.409733008439	1
1	44556	26842.850011593735	0
1	44710	26891.874812870353	1
1	44711	26892.202251494625	0
1	44929	26967.085772638639	1
1	44933	26968.049487496201	0
1	46765	28135.327781667174	1
1	46766	28137.464312638713	0
1	47680	28812.213824429179	1
1	47681	28812.258090689504	0
1	47685	28814.212992041656	1
1	47686	28815.850084186866	0
1	47695	28818.512987467981	1
1	47696	28819.834385816175	0
2	0	0	0
2	12	32.162537782624	1
2	13	32.576728200002	0
2	20	35.321720177022	1
2	21	35.731833372845	0
2	25	37.586518500298	1
2	26	37.592000801324	0
2	75	91.357510668849	1
2	76	91.60264151942	0
2	80	91.945025811816	1
2	82	92.873590605761	2
2	83	93.463115111999	1
2	86	95.099669012315	0
2	110	110.635614727645	1
2	111	112.263305730352	0
2	125	118.870217100009	1
2	126	120.3438255802	0
2	130	121.67881069218	1
2	131	121.738895254789	0
2	135	121.824893786742	1
2	137	122.195155859603	2
2	138	123.555600027947	1
2	142	124.023030259305	2
2	143	125.181675786918	1
2	147	125.411932407609	2
2	148	126.758676559685	1
2	151	128.226521392001	0
2	165	133.834827101347	1
2	166	134.849352197326	0
2	180	142.011782317498	1
2	181	143.612544022025	0
2	235	183.248903575456	1
2	237	184.562782687078	2
2	238	184.962346665523	1
2	242	185.546821342379	2
2	243	186.200492706857	1
2	246	187.653514577597	0
2	250	188.507683870405	1
2	251	189.372853757031	0
2	265	195.436590722434	1
2	266	195.656002956433	0
2	275	198.25282812918	1
2	277	198.339476054163	2
2	278	198.837838898403	1
2	283	200.700364243229	0
2	290	203.086786435676	1
2	291	203.421971281422	0
2	295	203.872511445383	1
2	296	204.835842484971	0
2	300	205.112660617532	1
2	301	206.10552238821	0
2	315	228.399846413446	1
2	316	230.051529751522	0
2	340	261.286825345656	1
2	341	261.443808823557	0
2	345	261.908653163245	1
2	347	262.005734730707	2
2	348	263.103588200839	1
2	352	263.605780214534	2
2	353	264.340767228337	1
2	357	265.022516273393	2
2	358	266.047882534483	1
2	361	267.347351075815	0
2	370	269.262357628749	1
2	371	270.966829170368	0
2	375	271.415669417205	1
2	377	271.60376143517	2
2	378	272.220411542512	1
2	382	273.357627355762	2
2	383	273.617063418857	1
2	386	275.236081172048	0
2	390	275.64817377222	1
2	391	276.84156181839	0
2	440	318.470251817387	1
2	441	320.153868820013	0
2	450	324.750819368884	1
2	451	325.845334318782	0
2	460	328.556533232157	1
2	461	328.557286049741	0
2	480	350.886038335518	1
2	482	351.253053772806	2
2	483	351.963469136354	1
2	486	353.379107612778	0
2	490	354.031367802101	1
2	491	355.017671329935	0
2	495	355.705106160736	1
2	496	356.880418857594	0
2	500	358.312263796644	1
2	501	358.482190766034	0
2	510	363.369188561586	1
2	511	364.638616510078	0
2	530	370.954185583852	1
2	533	371.876192921946	0
2	537	372.201054924233	1
2	540	373.671950090664	0
2	544	374.486794083025	1
2	545	374.962757798644	0
2	549	375.302235343943	1
2	550	376.24048117994	0
2	557	377.687626634414	1
2	558	379.2033083571	0
2	562	380.661136319098	1
2	563	380.919038380112	0
2	567	382.127397542856	1
2	568	382.463546726468	0
2	610	421.940694620315	1
2	611	423.12190517291	0
2	615	423.962861568395	1
2	616	424.875291955392	0
2	675	463.351239274709	1
2	676	464.384643237626	0
2	680	464.938019658856	1
2	681	466.127013308516	0
2	685	466.502685021685	1
2	686	467.990521909258	0
2	690	468.188011750568	1
2	692	469.223088034972	2
2	694	469.401958699885	3
2	697	469.918602881356	2
2	700	471.569508618637	1
2	704	472.710535227618	2
2	706	472.735457091103	3
2	708	472.939977236889	4
2	709	472.941172140612	3
2	713	474.065003259635	4
2	714	474.85720973309	3
2	718	474.974192518773	4
2	720	476.13090433738	5
2	721	476.602346415407	4
2	724	478.009580082594	3
2	728	479.009180954491	4
2	729	479.82350267764	3
2	733	480.345316290849	4
2	734	481.337796551136	3
2	738	481.763075067331	4
2	739	483.048862521683	3
2	742	484.6529102312	2
2	745	486.442975846452	1
2	748	488.150544111205	0
2	752	488.993485139572	1
2	754	489.877814112432	2
2	755	490.04477809198	1
2	758	491.347653307354	0
2	762	491.477748501258	1
2	763	492.766699169537	0
2	775	495.618573531353	1
2	777	495.898901295378	2
2	778	496.805019639952	1
2	781	498.278518744891	0
2	830	552.284804178153	1
2	831	553.363551935083	0
2	835	553.595270507025	1
2	836	555.2483869723	0
2	855	562.908898589565	1
2	857	562.979098798681	2
2	858	563.189127326161	1
2	864	563.382147229165	2
2	865	564.724766010195	1
2	868	566.438657771759	0
2	877	568.503207974361	1
2	878	569.673068375104	0
2	882	569.866219672214	1
2	885	571.215786176511	0
2	892	574.510972434892	1
2	893	575.022831712813	0
2	897	575.571074699992	1
2	898	576.36110045571	0
2	910	579.694686795795	1
2	913	581.112795463007	0
2	950	634.466220147647	1
2	955	634.923951170567	0
2	965	639.075219461648	1
2	966	640.281136832919	0
2	975	644.181275597895	1
2	976	645.085174176983	0
2	1000	653.029334057714	1
2	1001	654.783435833096	0
2	1015	663.271141907676	1
2	1017	663.48758434418	2
2	1018	664.01138525226	1
2	1021	665.961970912226	0
2	1030	668.237405771755	1
2	1031	669.108677559826	0
2	1055	681.738329681351	1
2	1056	683.029462686627	0
2	1060	683.577508394894	1
2	1061	684.589734159111	0
2	1065	685.96837840155	1
2	1066	686.257152107245	0
2	1075	688.799000533422	1
2	1076	689.026416849697	0
2	1117	748.746142651686	1
2	1118	749.898119023012	0
2	1122	751.477400897391	1
2	1123	751.716002728732	0
2	1130	753.576563388158	1
2	1132	753.743033117625	2
2	1135	755.107220221812	1
2	1138	756.887748884538	0
2	1150	759.701833404658	1
2	1151	760.764366298297	0
2	1160	762.462833372329	1
2	1161	764.256256229186	0
2	1220	803.348514903541	1
2	1222	803.858496714091	2
2	1223	804.76693289549	1
2	1226	806.124999318541	0
2	1235	808.827635666059	1
2	1236	809.405108316325	0
2	1240	810.110521638434	1
2	1241	810.629141680979	0
2	1245	812.203958022505	1
2	1246	812.344661320642	0
2	1290	875.153940499666	1
2	1291	875.367798020092	0
2	1295	876.349769314319	1
2	1296	876.916959828285	0
2	1300	878.455345365255	1
2	1301	878.69471875034	0
2	1305	878.755089478132	1
2	1307	880.004555485908	2
2	1308	880.471113279981	1
2	1311	882.426321770956	0
2	1315	883.567043236497	1
2	1317	883.791665039534	2
2	1318	884.122103219998	1
2	1322	884.154529665114	2
2	1323	885.87899569269	1
2	1326	887.172265036737	0
2	1350	908.510238638072	1
2	1351	909.470545713017	0
2	1355	909.89388944601	1
2	1356	910.763905569325	0
2	1380	935.910170366784	1
2	1381	936.768486605399	0
2	1390	939.962827917213	1
2	1391	941.229600834394	0
2	1395	942.456905379646	1
2	1396	942.695617286967	0
2	1400	942.756235089939	1
2	1401	944.343679519849	0
2	1405	945.052368406734	1
2	1406	945.711590358162	0
2	1425	969.529947333799	1
2	1426	970.347467523541	0
2	1435	976.78836723526	1
2	1436	978.224182150858	0
2	1440	980.116522411874	1
2	1441	980.219533551643	0
2	1445	980.777028373648	1
2	1446	982.147468521605	0
2	1452	983.06781681219	1
2	1454	983.150464957909	2
2	1455	983.652310097935	1
2	1459	983.744182587623	2
2	1460	984.856626130054	1
2	1464	986.045047380919	2
2	1465	986.678280933732	1
2	1469	988.139819474921	2
2	1470	988.424907143945	1
2	1473	989.763880738774	0
2	1477	990.948372460552	1
2	1478	991.204968666443	0
2	1482	992.360128120663	1
2	1483	992.724541667634	0
2	1495	998.335326008609	1
2	1497	998.455199227458	2
2	1498	999.221687692211	1
2	1502	999.706443861189	2
2	1504	1000.367582805361	3
2	1505	1000.466314809204	2
2	1509	1001.29246789688	3
2	1510	1001.893062899628	2
2	1513	1003.660968651803	1
2	1516	1004.916525208013	0
2	1565	1104.641594220888	1
2	1568	1105.992994768902	0
2	1572	1106.28750482716	1
2	1577	1107.253810139544	0
2	1584	1109.014049212621	1
2	1586	1109.832856348739	2
2	1588	1109.911698764127	3
2	1589	1110.277386811919	2
2	1593	1110.70980623625	3
2	1596	1112.115446496367	2
2	1599	1113.352824755556	1
2	1602	1115.111326383038	0
2	1606	1116.038830759394	1
2	1607	1116.7123636633	0
2	1611	1118.25381359442	1
2	1612	1118.614975550569	0
2	1619	1120.643383369904	1
2	1621	1121.461915482917	2
2	1622	1122.085255316256	1
2	1626	1122.978170189201	2
2	1627	1123.665235922097	1
2	1631	1123.802449341278	2
2	1634	1125.076356197133	1
2	1637	1126.823989487796	0
2	1644	1128.925106795179	1
2	1645	1130.196618176049	0
2	1652	1131.81977102152	1
2	1654	1131.854487352774	2
2	1655	1133.244068572281	1
2	1658	1134.57968347518	0
2	1664	1134.795928399316	1
2	1665	1136.124907536975	0
2	1672	1139.883710722467	1
2	1673	1139.90314927975	0
2	1707	1159.710915893322	1
2	1708	1159.872245691891	0
2	1717	1162.179612914499	1
2	1718	1163.180234338331	0
2	1727	1166.631942996213	1
2	1728	1166.766490088391	0
2	1732	1167.549978978529	1
2	1733	1168.145240345399	0
2	1737	1169.235494274817	1
2	1738	1170.088019950676	0
2	1742	1170.715793875724	1
2	1743	1171.793004352401	0
2	1747	1171.818338021281	1
2	1748	1173.467400561261	0
2	1755	1174.901212493078	1
2	1756	1176.460013532813	0
2	1760	1177.073127744483	1
2	1761	1177.800253514934	0
2	1795	1201.217155528964	1
2	1797	1202.101521398318	2
2	1798	1202.222007473033	1
2	1801	1203.862312251363	0
2	1805	1204.870072428344	1
2	1806	1205.156361610103	0
2	1835	1217.902175251849	1
2	1836	1218.614294306534	0
2	1880	1249.030090281693	1
2	1881	1250.250035671766	0
2	1885	1250.937459734995	1
2	1887	1251.231351792567	2
2	1888	1251.903805095206	1
2	1892	1252.154444672592	2
2	1893	1253.878136800664	1
2	1897	1254.051380679838	2
2	1898	1255.866925148914	1
2	1902	1257.092028004392	2
2	1903	1257.611091653692	1
2	1906	1259.12925366542	0
2	1910	1260.360463735356	1
2	1912	1260.659443721165	2
2	1913	1260.921868780317	1
2	1917	1261.312252881191	2
2	1918	1262.199948253544	1
2	1922	1263.098957319661	2
2	1924	1263.312852740134	3
2	1925	1264.061000509622	2
2	1928	1266.050659244942	1
2	1932	1266.349196170575	2
2	1933	1267.833481222267	1
2	1937	1269.459208369223	2
2	1938	1269.488237770709	1
2	1942	1270.409933544616	2
2	1943	1270.992098615753	1
2	1947	1271.936626722355	2
2	1949	1272.587767380014	3
2	1950	1272.936585145878	2
2	1954	1273.541928331821	3
2	1956	1273.8438416058	4
2	1957	1274.155527838195	3
2	1960	1275.893886314022	2
2	1963	1277.363922633106	1
2	1966	1279.341780590328	0
2	1975	1283.261336271399	1
2	1976	1284.705236826013	0
2	1990	1294.508789549076	1
2	1991	1294.876199456307	0
2	1995	1295.79288404001	1
2	1996	1296.167993910613	0
2	2020	1313.402658397663	1
2	2021	1314.408520492265	0
2	2025	1314.48369570211	1
2	2026	1315.823414854432	0
2	2030	1316.260243440885	1
2	2031	1317.100569694402	0
2	2035	1318.06844659454	1
2	2036	1319.088138268614	0
2	2040	1319.995057382572	1
2	2041	1320.623344910057	0
2	2045	1321.996535371435	1
2	2046	1322.033749986725	0
2	2055	1324.977129334549	1
2	2056	1325.797081330237	0
2	2060	1326.265813894276	1
2	2062	1326.987880049905	2
2	2063	1327.655495525901	1
2	2066	1329.371098390226	0
2	2090	1346.429361104815	1
2	2091	1348.076842978137	0
2	2100	1349.450179375593	1
2	2102	1349.863868619595	2
2	2103	1351.00847621868	1
2	2106	1352.52618961251	0
2	2110	1353.828836677303	1
2	2111	1354.170132857288	0
2	2175	1426.769026872679	1
2	2176	1428.449900098	0
2	2200	1445.232467942112	1
2	2201	1445.994865778418	0
2	2215	1452.90003461196	1
2	2217	1453.630721316716	2
2	2218	1454.796621706625	1
2	2221	1456.036417898824	0
2	2225	1457.030987089761	1
2	2226	1457.810119725493	0
2	2230	1458.661284479342	1
2	2231	1459.355702427318	0
2	2235	1459.505900713313	1
2	2237	1460.847106594221	2
2	2238	1461.026204911349	1
2	2241	1462.333956581829	0
2	2250	1463.97373346074	1
2	2252	1464.679455572372	2
2	2254	1464.848666141144	3
2	2255	1464.92730207025	2
2	2260	1466.869679807042	1
2	2266	1468.299271288957	2
2	2267	1468.761047330787	1
2	2271	1469.741346818271	2
2	2272	1470.37585912208	1
2	2275	1471.726740099405	0
2	2279	1471.9306046795	1
2	2281	1471.990168912769	2
2	2283	1472.378893155413	3
2	2284	1473.417216910896	2
2	2287	1474.695875395936	1
2	2290	1476.505534594049	0
2	2305	1484.715976608727	1
2	2308	1486.317469024881	0
2	2325	1492.633458853654	1
2	2326	1493.415491569622	0
2	2335	1496.099862763042	1
2	2337	1496.851650285933	2
2	2338	1497.286633144426	1
2	2341	1499.177229560087	0
2	2347	1501.079078349699	1
2	2348	1501.168323889668	0
2	2360	1504.197854240594	1
2	2361	1505.056731643821	0
2	2365	1505.228713430903	1
2	2366	1506.85167029045	0
2	2375	1508.935175635893	1
2	2377	1509.472691280659	2
2	2378	1510.216453647906	1
2	2382	1511.564196588795	2
2	2383	1511.928689215625	1
2	2386	1513.355710158231	0
2	2390	1513.862903811754	1
2	2392	1514.220231999714	2
2	2393	1514.776654841112	1
2	2396	1516.068746483991	0
2	2400	1516.725700147452	1
2	2401	1517.983050335119	0
2	2405	1518.520520699446	1
2	2406	1519.725366851235	0
2	2415	1523.935375177833	1
2	2416	1524.389613917067	0
2	2430	1530.441444562222	1
2	2432	1530.547159449091	2
2	2433	1530.712765630809	1
2	2436	1532.661897167665	0
2	2442	1534.019088368043	1
2	2443	1534.355069292811	0
2	2450	1536.365519568026	1
2	2452	1536.489579042525	2
2	2453	1537.371029528519	1
2	2458	1538.862434825403	0
2	2462	1539.006441942404	1
2	2464	1539.993250333173	2
2	2465	1540.801057316278	1
2	2468	1542.129232969423	0
2	2472	1542.924013457606	1
2	2473	1543.448881132444	0
2	2477	1544.393376180256	1
2	2478	1544.695057708313	0
2	2495	1556.079284681111	1
2	2496	1556.186302590427	0
2	2500	1556.862444763513	1
2	2501	1558.132339469959	0
2	2505	1558.933933838126	1
2	2506	1559.760895424952	0
2	2530	1570.764807828071	1
2	2531	1571.819164326793	0
2	2535	1571.857742631026	1
2	2536	1573.042803272238	0
2	2545	1577.914557868583	1
2	2548	1579.318687670243	0
2	2552	1579.681270178041	1
2	2553	1580.969343011578	0
2	2560	1583.769005552821	1
2	2561	1584.163210180153	0
2	2565	1584.57592297797	1
2	2566	1585.681500495535	0
2	2572	1586.52496855139	1
2	2573	1586.949471524854	0
2	2577	1587.748012470719	1
2	2578	1588.19626546738	0
2	2595	1612.355433654561	1
2	2596	1613.483917605572	0
2	2645	1647.03680870491	1
2	2646	1648.662001745399	0
2	2710	1687.763895156876	1
2	2711	1688.132047868272	0
2	2770	1709.852590614541	1
2	2771	1710.06471097841	0
2	2780	1711.747084699722	1
2	2781	1713.484846565678	0
2	2790	1723.131200420884	1
2	2791	1724.860543949111	0
2	2835	1766.327533091215	1
2	2836	1767.023626488955	0
2	2840	1767.159051946553	1
2	2841	1768.300667746687	0
2	2845	1768.807917907675	1
2	2846	1769.998852602714	0
2	2855	1771.59654760814	1
2	2856	1773.243448458375	0
2	2865	1775.321626701313	1
2	2867	1775.476504549749	2
2	2869	1776.439205321309	3
2	2870	1776.459344195151	2
2	2875	1777.724045116962	1
2	2878	1779.619537310996	0
2	2882	1780.587438606488	1
2	2883	1781.329924929277	0
2	2887	1781.987409643026	1
2	2888	1782.984341093847	0
2	2892	1784.016590992998	1
2	2893	1784.748432070897	0
2	2897	1785.17032492581	1
2	2899	1786.262955953561	2
2	2900	1786.734027788364	1
2	2904	1787.053578479043	2
2	2905	1788.280458560348	1
2	2909	1789.281748768469	2
2	2910	1790.128455108166	1
2	2915	1791.587206146442	0
2	2922	1793.498895018177	1
2	2923	1795.15600538379	0
2	2932	1797.900702107615	1
2	2933	1798.70624540145	0
2	2940	1800.234871207827	1
2	2941	1802.12008141423	0
2	2950	1804.431836194654	1
2	2951	1805.332119898446	0
2	2960	1808.377706433869	1
2	2963	1809.914395168721	0
2	2975	1813.532421243349	1
2	2977	1814.23749187457	2
2	2978	1814.818023665919	1
2	2981	1816.479425844847	0
2	2985	1817.236209446757	1
2	2986	1818.147753612808	0
2	3015	1830.929323137143	1
2	3016	1832.037393231812	0
2	3040	1840.728308512086	1
2	3041	1841.771049422982	0
2	3100	1913.349939397715	1
2	3101	1913.94393247209	0
2	3115	1923.903663167155	1
2	3116	1924.499018447318	0
2	3120	1925.608832290352	1
2	3121	1926.025058620267	0
2	3125	1926.633268029355	1
2	3126	1927.579099363305	0
2	3137	1931.344273208149	1
2	3138	1931.41471421242	0
2	3152	1936.074095202793	1
2	3153	1936.634307894671	0
2	3180	1962.233545872087	1
2	3181	1962.571950830805	0
2	3185	1963.156554973963	1
2	3186	1964.565167396988	0
2	3205	1992.24805666818	1
2	3206	1993.0406504651	0
2	3220	2001.86579935168	1
2	3221	2003.049354185463	0
2	3225	2004.397050481945	1
2	3226	2004.764712009319	0
2	3230	2005.212642403095	1
2	3231	2006.277289658711	0
2	3270	2032.623243433824	1
2	3271	2033.860815871866	0
2	3290	2056.791340557765	1
2	3291	2057.974080390396	0
2	3360	2106.19647103698	1
2	3362	2106.289366488223	2
2	3364	2106.639465988182	3
2	3365	2107.304126350725	2
2	3368	2108.744039108934	1
2	3371	2110.245246635335	0
2	3380	2112.106742125349	1
2	3381	2113.418207307386	0
2	3385	2113.691030588701	1
2	3386	2114.689800183887	0
2	3390	2116.20141971497	1
2	3392	2116.473476501931	2
2	3394	2116.557490356097	3
2	3395	2116.680645983892	2
2	3398	2118.052179123873	1
2	3402	2118.239987113501	2
2	3403	2119.350256194959	1
2	3406	2120.814880926202	0
2	3410	2120.904906176353	1
2	3411	2122.102729994099	0
2	3450	2148.790257598245	1
2	3451	2149.727275702461	0
2	3455	2150.73151932226	1
2	3457	2150.832365195454	2
2	3458	2151.629716907359	1
2	3461	2153.473600786655	0
2	3475	2158.851717401894	1
2	3476	2159.866139462105	0
2	3495	2168.65607365263	1
2	3496	2168.910473073667	0
2	3505	2173.185734878734	1
2	3506	2174.050185778078	0
2	3515	2177.713770843249	1
2	3516	2177.865993153752	0
2	3535	2184.786093806413	1
2	3537	2184.893848066747	2
2	3538	2186.663249575251	1
2	3542	2188.216777268937	2
2	3543	2188.278108629116	1
2	3548	2189.83206072347	0
2	3552	2190.48781054173	1
2	3553	2191.265072140375	0
2	3557	2192.178964269674	1
2	3558	2193.239932306388	0
2	3565	2195.733650859734	1
2	3566	2197.092284072468	0
2	3575	2199.365614017456	1
2	3577	2201.108344211554	2
2	3578	2201.137693937154	1
2	3582	2201.199484576616	2
2	3584	2201.863625502699	3
2	3585	2202.710609334366	2
2	3588	2204.658229386279	1
2	3592	2204.951036896789	2
2	3593	2206.409679798441	1
2	3596	2208.280676996926	0
2	3600	2208.780598702591	1
2	3601	2209.684033495778	0
2	3620	2224.237442690146	1
2	3621	2224.829772350512	0
2	3625	2225.845695532832	1
2	3626	2226.05656021735	0
2	3630	2227.122569144977	1
2	3631	2227.930025334976	0
2	3635	2228.184499510615	1
2	3636	2229.160150537773	0
2	3640	2229.410768365222	1
2	3642	2229.880651504856	2
2	3644	2230.422668422332	3
2	3645	2231.132436322181	2
2	3648	2232.994037510215	1
2	3652	2233.412197649717	2
2	3654	2233.52633107171	3
2	3655	2234.928845631092	2
2	3659	2235.107079292384	3
2	3660	2236.646239782072	2
2	3663	2238.091015670023	1
2	3667	2238.6752887732	2
2	3668	2239.546790705196	1
2	3672	2240.945621126963	2
2	3673	2241.191113427229	1
2	3677	2242.327422463074	2
2	3678	2243.048617615871	1
2	3681	2244.935881516099	0
2	3685	2246.20213906511	1
2	3686	2246.68136680419	0
2	3690	2248.281375016197	1
2	3691	2248.311758916959	0
2	3700	2251.157451965981	1
2	3701	2252.984910701603	0
2	3710	2256.914934102011	1
2	3712	2257.223649552283	2
2	3713	2257.380043051279	1
2	3716	2259.129841684437	0
2	3730	2268.504965765794	1
2	3732	2268.552974290808	2
2	3733	2269.516680964035	1
2	3736	2271.471378322457	0
2	3745	2274.057884561038	1
2	3746	2275.751924777417	0
2	3750	2276.500185339303	1
2	3751	2277.487138393162	0
2	3765	2289.837879957765	1
2	3766	2291.312503986816	0
2	3780	2307.215862010109	1
2	3781	2308.823753792821	0
2	3845	2349.254401207624	1
2	3847	2350.634330184353	2
2	3848	2350.966078144464	1
2	3852	2352.008870678898	2
2	3853	2352.606303810667	1
2	3857	2352.819900869607	2
2	3858	2353.958857640031	1
2	3862	2354.403064506734	2
2	3863	2355.607657289284	1
2	3866	2357.192979086528	0
2	3870	2357.356801560788	1
2	3872	2357.46567097725	2
2	3875	2358.755721800739	1
2	3878	2360.278773934545	0
2	3885	2362.887761280398	1
2	3886	2363.641171825456	0
2	3895	2366.875882128039	1
2	3900	2368.308495815881	0
2	3904	2369.253386147228	1
2	3905	2369.723407326118	0
2	3909	2371.003910730489	1
2	3910	2371.11066115372	0
2	3914	2371.510508462116	1
2	3916	2371.624415163227	2
2	3917	2372.589244100862	1
2	3922	2374.227673583143	0
2	3926	2374.366622741624	1
2	3927	2375.832182976455	0
2	3931	2376.517028321106	1
2	3932	2377.584882394821	0
2	3936	2377.619996874208	1
2	3937	2379.477664136552	0
2	3941	2379.602964108106	1
2	3943	2379.859852416461	2
2	3944	2381.24903676197	1
2	3947	2382.536258668677	0
2	3951	2384.187785622086	1
2	3952	2384.372416571193	0
2	3959	2386.45255513027	1
2	3961	2386.476546048326	2
2	3962	2387.192591742278	1
2	3965	2389.028664059044	0
2	3969	2390.56650814204	1
2	3970	2390.723271467575	0
2	3977	2393.305260591955	1
2	3978	2394.193409178817	0
2	3990	2397.299499330558	1
2	3992	2398.459838570031	2
2	3993	2398.949549464175	1
2	3996	2400.919833660723	0
2	4000	2400.960061458841	1
2	4001	2402.178243022264	0
2	4005	2402.250755719787	1
2	4006	2404.014514146411	0
2	4025	2430.610424029334	1
2	4026	2431.702613396476	0
2	4030	2432.068981911109	1
2	4031	2433.329513292293	0
2	4035	2433.776035877112	1
2	4036	2434.982155361491	0
2	4045	2444.143799061973	1
2	4046	2444.147824033119	0
2	4070	2482.059240989245	1
2	4071	2482.698104377618	0
2	4155	2534.527849017391	1
2	4156	2536.112277545517	0
2	4160	2536.598387801495	1
2	4161	2538.011246192006	0
2	4180	2579.260665048105	1
2	4183	2579.619914495093	0
2	4187	2579.708527043452	1
2	4188	2581.45056664337	0
2	4192	2582.132680125169	1
2	4193	2582.810987157268	0
2	4202	2584.922445857503	1
2	4204	2586.448061879211	2
2	4206	2586.468930273371	3
2	4207	2586.688692445946	2
2	4211	2587.033929508136	3
2	4212	2588.43226617266	2
2	4215	2590.278715650631	1
2	4218	2591.943754264606	0
2	4230	2597.62504837642	1
2	4232	2597.886819136677	2
2	4233	2598.286829382405	1
2	4237	2599.97894501387	2
2	4238	2600.168402577788	1
2	4241	2601.528792666495	0
2	4245	2602.650887359343	1
2	4246	2602.994649246372	0
2	4255	2605.209178334788	1
2	4256	2606.113071604602	0
2	4265	2607.957627153787	1
2	4267	2608.148796995862	2
2	4268	2608.698086664423	1
2	4272	2608.879788294716	2
2	4273	2610.035355706297	1
2	4276	2611.75115205922	0
2	4300	2677.973835285689	1
2	4302	2678.28354846987	2
2	4303	2678.881344025508	1
2	4306	2680.5350959697	0
2	4315	2682.334692587179	1
2	4316	2683.966520692028	0
2	4320	2684.519292912758	1
2	4321	2685.374084191576	0
2	4350	2701.879518563274	1
2	4351	2702.762450861595	0
2	4370	2710.19481317	1
2	4372	2711.043594471814	2
2	4373	2711.202790119287	1
2	4377	2711.387550859825	2
2	4379	2711.667371602837	3
2	4380	2712.983110571068	2
2	4383	2714.479439603698	1
2	4387	2715.144357244466	2
2	4388	2715.930642372717	1
2	4391	2717.64923798607	0
2	4395	2718.537807007977	1
2	4396	2719.087342927207	0
2	4400	2719.146366021456	1
2	4402	2720.449660721012	2
2	4403	2720.50066530702	1
2	4406	2721.797946753142	0
2	4410	2722.26096886828	1
2	4411	2723.436512944264	0
2	4440	2736.000711134157	1
2	4441	2736.411859486805	0
2	4500	2827.378015523856	1
2	4501	2827.64569423521	0
2	4535	2862.099466778185	1
2	4536	2863.094791929563	0
2	4550	2871.994599054042	1
2	4552	2873.215192506518	2
2	4553	2873.434956847295	1
2	4556	2874.846733976878	0
2	4560	2875.474654706695	1
2	4562	2875.842382216451	2
2	4563	2876.551854439057	1
2	4567	2878.221175607351	2
2	4568	2878.451281894721	1
2	4572	2878.595993804298	2
2	4574	2878.924824808434	3
2	4575	2879.898435810745	2
2	4579	2880.514734425879	3
2	4580	2881.765370678693	2
2	4583	2883.377105314262	1
2	4587	2884.096478569047	2
2	4588	2885.227036266193	1
2	4591	2886.5076461965	0
2	4595	2888.392123501848	1
2	4596	2888.402178256006	0
2	4600	2889.078934083363	1
2	4602	2889.467554326706	2
2	4604	2889.565325602153	3
2	4605	2890.077393499927	2
2	4609	2890.360093744188	3
2	4610	2891.459828434677	2
2	4613	2893.420446594597	1
2	4616	2895.284264601932	0
2	4620	2896.122926416528	1
2	4621	2896.560536654086	0
2	4625	2898.408499084742	1
2	4626	2898.464556461738	0
2	4645	2910.952008840349	1
2	4646	2911.616033368962	0
2	4670	2926.00820638782	1
2	4671	2926.32224832884	0
2	4695	2994.761276733139	1
2	4696	2995.174141820134	0
2	4700	2995.511464295738	1
2	4701	2996.795780120218	0
2	4745	3029.587639911448	1
2	4746	3030.000876904313	0
2	4795	3073.850313299816	1
2	4796	3074.735027752401	0
2	4850	3166.221608067438	1
2	4851	3167.264325717934	0
2	4875	3184.991571454577	1
2	4876	3185.927448382582	0
2	4895	3198.888746237671	1
2	4896	3199.258904363747	0
2	4900	3199.295661571634	1
2	4901	3201.178094154383	0
2	4935	3226.01064619557	1
2	4936	3226.883330126932	0
2	4940	3227.233318939442	1
2	4942	3227.569598385882	2
2	4943	3228.649628845124	1
2	4947	3228.927112048292	2
2	4948	3230.233161439455	1
2	4951	3231.511674986116	0
2	4975	3279.833804928129	1
2	4976	3280.098228664839	0
2	4980	3281.136571036036	1
2	4981	3281.638997000412	0
2	4985	3282.198306108205	1
2	4986	3283.310141749264	0
2	5015	3326.80946905356	1
2	5016	3327.942210004147	0
2	5025	3337.363368475988	1
2	5026	3337.485145664703	0
2	5070	3366.766553704338	1
2	5071	3368.558371702828	0
2	5085	3378.256602021982	1
2	5086	3378.762809176371	0
2	5095	3393.604639029096	1
2	5096	3394.938402190609	0
2	5100	3395.312521409148	1
2	5102	3395.819267765535	2
2	5103	3396.859245019211	1
2	5107	3397.600993014242	2
2	5108	3398.547132207631	1
2	5111	3400.214217330134	0
2	5115	3400.491426726718	1
2	5116	3402.019538010275	0
2	5120	3402.301276535559	1
2	5121	3403.46287460885	0
2	5130	3406.789709660532	1
2	5131	3407.667183195982	0
2	5140	3425.577469513627	1
2	5141	3425.80511539149	0
2	5145	3426.805467466924	1
2	5146	3427.298684165989	0
2	5150	3427.757357152089	1
2	5151	3428.559385886964	0
2	5182	3450.779257294668	1
2	5183	3451.765264521658	0
2	5187	3453.012677016537	1
2	5188	3453.661884753711	0
2	5192	3454.58775311834	1
2	5194	3455.050890247178	2
2	5195	3455.255864724077	1
2	5198	3457.001685059935	0
2	5202	3457.236052086175	1
2	5203	3458.310537807018	0
2	5207	3458.37505469592	1
2	5209	3459.402224760084	2
2	5210	3460.291969694503	1
2	5214	3460.981522991645	2
2	5215	3461.757516071506	1
2	5218	3463.623706037857	0
2	5222	3464.290843061177	1
2	5224	3465.119692990125	2
2	5225	3465.12393060115	1
2	5228	3466.839431879789	0
2	5245	3480.59038196322	1
2	5246	3481.764404771247	0
2	5250	3483.008394008795	1
2	5251	3483.622633141608	0
2	5255	3483.989951395354	1
2	5256	3485.419699883604	0
2	5265	3487.788449937207	1
2	5266	3489.634565256431	0
2	5275	3493.144004948406	1
2	5276	3493.86426910845	0
2	5280	3493.981035385809	1
2	5282	3494.553896313277	2
2	5283	3495.819733095666	1
2	5287	3495.888482582927	2
2	5288	3497.044296646615	1
2	5291	3498.764318050568	0
2	5295	3499.422367869983	1
2	5296	3500.395697871906	0
2	5300	3501.054487751398	1
2	5301	3502.140987407913	0
2	5305	3503.482201188821	1
2	5307	3503.511190105194	2
2	5308	3503.683956859199	1
2	5312	3505.255930934343	2
2	5314	3505.314856824242	3
2	5315	3505.344075136011	2
2	5319	3505.440605362234	3
2	5321	3505.858370832614	4
2	5322	3506.636497152349	3
2	5325	3508.058641619919	2
2	5328	3509.777892714305	1
2	5331	3511.38674421118	0
2	5335	3511.943212197524	1
2	5337	3512.149329779256	2
2	5339	3512.997425434588	3
2	5340	3513.3327043244	2
2	5344	3513.372770026499	3
2	5346	3513.581983946993	4
2	5347	3514.772534280209	3
2	5352	3516.063119192174	2
2	5355	3517.626624279222	1
2	5359	3518.074673606422	2
2	5360	3519.38252172017	1
2	5363	3520.87028715325	0
2	5370	3523.226940426495	1
2	5371	3523.87019939938	0
2	5390	3532.447517245603	1
2	5391	3532.572807333263	0
2	5450	3600.991069006847	1
2	5451	3601.203607441644	0
2	5455	3601.655046965016	1
2	5456	3602.86799859346	0
2	5460	3603.445795422594	1
2	5461	3604.6739939518	0
2	5510	3635.056862058489	1
2	5511	3636.566604749291	0
2	5515	3637.04654368246	1
2	5517	3637.159829372172	2
2	5518	3637.979752477809	1
2	5523	3639.224346156224	0
2	5527	3639.288325812534	1
2	5528	3640.914873341835	0
2	5532	3641.11517496324	1
2	5533	3642.466911555632	0
2	5570	3658.080292959693	1
2	5574	3659.319987025512	2
2	5575	3659.568136419015	1
2	5580	3661.354741842518	0
2	5615	3700.74278569065	1
2	5616	3701.910592193275	0
2	5640	3712.098818963043	1
2	5641	3712.822284667181	0
2	5645	3713.227248027582	1
2	5646	3714.506349049682	0
2	5650	3715.413348790348	1
2	5652	3715.587867712932	2
2	5653	3716.075389979022	1
2	5657	3716.194877939162	2
2	5658	3717.779638241405	1
2	5662	3718.662425720922	2
2	5663	3719.244407900038	1
2	5666	3720.489406100835	0
2	5695	3756.108220891185	1
2	5696	3756.218746388708	0
2	5700	3757.426528141599	1
2	5701	3757.898721433994	0
2	5705	3758.205000509529	1
2	5706	3759.489616310973	0
2	5730	3785.209460223052	1
2	5731	3786.717334739987	0
2	5745	3790.017991225534	1
2	5746	3791.952959468591	0
2	5750	3793.314113618063	1
2	5751	3793.476838266293	0
2	5760	3796.112652809448	1
2	5761	3797.359764439931	0
2	5770	3803.313922433598	1
2	5771	3803.314806025063	0
2	5775	3804.12768689448	1
2	5776	3804.53979382958	0
2	5787	3807.197869789797	1
2	5789	3807.680928402486	2
2	5790	3808.354880772661	1
2	5794	3809.120677419721	2
2	5795	3810.328135197367	1
2	5799	3810.399810871901	2
2	5800	3812.153727036844	1
2	5803	3813.375982887427	0
2	5807	3813.781235709075	1
2	5808	3815.059761716182	0
2	5820	3818.07488348731	1
2	5821	3819.656917541748	0
2	5865	3855.298827832225	1
2	5866	3856.053469204562	0
2	5870	3857.558408129163	1
2	5871	3857.748535859989	0
2	5910	3881.377795622578	1
2	5911	3881.656262815404	0
2	5935	3901.167014988928	1
2	5936	3901.814482081672	0
2	5940	3903.449779807438	1
2	5941	3903.724088997384	0
2	5945	3905.688500863086	1
2	5946	3905.695886469809	0
2	5960	3910.031627155854	1
2	5962	3910.434268766759	2
2	5963	3911.084126266479	1
2	5967	3912.272295906597	2
2	5968	3912.52515112517	1
2	5971	3914.310753936708	0
2	5980	3916.420423949501	1
2	5982	3917.167263269893	2
2	5984	3917.374217364596	3
2	5986	3917.857845770247	4
2	5987	3918.035764505265	3
2	5991	3919.126349629519	4
2	5992	3919.907681434897	3
2	5995	3921.169444791151	2
2	5999	3921.395561668299	3
2	6000	3922.846676916552	2
2	6003	3924.370914921087	1
2	6006	3925.61390525039	0
2	6010	3925.86236442751	1
2	6012	3926.523346048725	2
2	6013	3927.442978952748	1
2	6016	3929.267008066287	0
2	6062	3964.355423118441	1
2	6065	3965.19288427229	0
2	6072	3967.168739944376	1
2	6074	3968.011410979826	2
2	6075	3968.502977360738	1
2	6080	3969.927406830852	0
2	6084	3971.061313542613	1
2	6085	3971.896026092162	0
2	6089	3972.014707431287	1
2	6091	3973.291498193228	2
2	6092	3973.577079172944	1
2	6095	3974.929663087567	0
2	6099	3975.974820260013	1
2	6101	3976.363267637586	2
2	6102	3976.726207303209	1
2	6105	3978.122065892955	0
2	6112	3979.489268649672	1
2	6114	3980.373777451468	2
2	6115	3981.255398138566	1
2	6119	3982.315709501896	2
2	6120	3982.619709401531	1
2	6124	3982.677877157608	2
2	6126	3983.933727403298	3
2	6127	3984.542286595842	2
2	6130	3985.863835212728	1
2	6133	3987.433191272384	0
2	6152	3996.14374152959	1
2	6153	3996.307275693941	0
2	6165	3999.523568549511	1
2	6166	4001.301434220265	0
2	6170	4001.620853271759	1
2	6171	4003.251340199712	0
2	6175	4003.404316820341	1
2	6176	4005.157772049385	0
2	6180	4006.03268257577	1
2	6181	4006.598261846493	0
2	6190	4013.359381008812	1
2	6191	4014.214977817591	0
2	6195	4014.935864010812	1
2	6197	4015.866596100361	2
2	6198	4016.104924205485	1
2	6202	4016.488946669971	2
2	6203	4017.339301523547	1
2	6206	4018.692022684384	0
2	6285	4115.006398024505	1
2	6286	4116.647945587234	0
2	6310	4133.410437538575	1
2	6311	4134.250429261973	0
2	6320	4136.29906852058	1
2	6322	4138.146571951715	2
2	6323	4138.147123266509	1
2	6327	4139.287708994297	2
2	6330	4139.722852915837	1
2	6333	4141.391534878998	0
2	6337	4141.731312793115	1
2	6339	4142.519386188333	2
2	6340	4142.698806535951	1
2	6343	4144.624391116141	0
2	6347	4144.779302557658	1
2	6349	4146.442854870442	2
2	6350	4146.449962561889	1
2	6353	4148.420389620712	0
2	6357	4149.263669597295	1
2	6358	4149.623424345938	0
2	6365	4152.850655450835	1
2	6366	4153.077312349093	0
2	6410	4198.687790680128	1
2	6411	4200.058896765302	0
2	6427	4205.712550900804	1
2	6428	4205.912092917	0
2	6457	4222.781114101678	1
2	6458	4223.964447510868	0
2	6500	4250.920817713096	1
2	6501	4251.594147639692	0
2	6525	4274.708672000062	1
2	6526	4275.347486461665	0
2	6530	4276.369478033813	1
2	6531	4276.666996404122	0
2	6565	4292.317593025067	1
2	6566	4292.96477534962	0
2	6570	4293.973890809253	1
2	6571	4294.535159344274	0
2	6575	4295.118750027425	1
2	6576	4296.436427409063	0
2	6580	4297.656294211886	1
2	6581	4297.810725962977	0
2	6590	4300.633402479675	1
2	6591	4301.742797001001	0
2	6600	4303.623653591467	1
2	6602	4304.009417309204	2
2	6603	4305.047237626054	1
2	6606	4306.965143170916	0
2	6610	4308.0498569803	1
2	6611	4308.610370559209	0
2	6615	4308.63982548705	1
2	6616	4309.975964209587	0
2	6630	4325.200197046137	1
2	6631	4325.499458452949	0
2	6670	4356.98674870264	1
2	6671	4358.136284237468	0
2	6700	4379.395754526887	1
2	6701	4380.49130358523	0
2	6710	4382.273484044667	1
2	6712	4383.777643617833	2
2	6713	4384.092406891605	1
2	6716	4385.577037715299	0
2	6775	4447.319385215946	1
2	6776	4448.16133440202	0
2	6780	4449.258442340997	1
2	6781	4450.100923665333	0
2	6825	4489.4842271345	1
2	6826	4490.867618615199	0
2	6840	4499.339697557905	1
2	6841	4499.538382369252	0
2	6845	4499.70215291466	1
2	6846	4500.757666172059	0
2	6865	4511.863915812223	1
2	6867	4512.71283131557	2
2	6868	4513.565898682603	1
2	6872	4514.122843954153	2
2	6874	4514.844270234381	3
2	6876	4514.897924206282	4
2	6877	4515.293029041455	3
2	6880	4516.980475243234	2
2	6884	4517.883449837518	3
2	6886	4518.094008996723	4
2	6887	4518.485438730434	3
2	6890	4520.254610270873	2
2	6893	4521.602911665343	1
2	6897	4521.95057390488	2
2	6899	4522.527904267272	3
2	6900	4522.954524690524	2
2	6904	4523.458654345929	3
2	6906	4524.441039387406	4
2	6907	4524.940364547499	3
2	6910	4526.388456461631	2
2	6913	4527.72579982286	1
2	6916	4529.119240194798	0
2	6935	4536.659772729667	1
2	6936	4537.279389142668	0
2	6940	4537.893404618821	1
2	6941	4538.549721930226	0
2	6945	4538.682703562543	1
2	6946	4540.212228335676	0
2	6952	4540.977392320714	1
2	6953	4542.012296411072	0
2	6960	4544.52519068566	1
2	6961	4545.102537852389	0
2	6965	4545.834938561836	1
2	6966	4547.020444080283	0
2	6995	4568.73768622529	1
2	6996	4569.035756314717	0
2	7000	4569.983940661299	1
2	7001	4570.236143954456	0
2	7020	4579.120387188334	1
2	7021	4579.594271689609	0
2	7025	4579.815270417211	1
2	7026	4581.252340194911	0
2	7065	4623.776014375141	1
2	7066	4624.602657297492	0
2	7077	4627.830363285816	1
2	7078	4628.128232765761	0
2	7082	4629.156986064282	1
2	7084	4629.588303794943	2
2	7085	4629.855286942427	1
2	7090	4631.118048775387	0
2	7094	4631.440798918326	1
2	7095	4632.594767980282	0
2	7099	4632.595663215716	1
2	7100	4634.343163033766	0
2	7104	4634.555676296651	1
2	7105	4635.837918812041	0
2	7112	4638.359669285406	1
2	7113	4638.922369403769	0
2	7160	4656.88291053278	1
2	7161	4658.544474373155	0
2	7185	4674.947015062204	1
2	7187	4676.560954567221	2
2	7188	4676.807323587195	1
2	7192	4677.410921972929	2
2	7194	4677.716167461292	3
2	7196	4677.803827902082	4
2	7197	4678.698061751642	3
2	7200	4680.433919607729	2
2	7203	4681.874970867738	1
2	7206	4683.141744827174	0
2	7210	4684.042196614797	1
2	7212	4684.68009956446	2
2	7214	4684.711889058743	3
2	7215	4684.998601941273	2
2	7219	4685.17610437879	3
2	7221	4685.45281664134	4
2	7223	4685.471103290541	5
2	7224	4686.808571625755	4
2	7227	4688.749848452837	3
2	7230	4690.596785636873	2
2	7233	4692.27979766249	1
2	7236	4694.108777918362	0
2	7250	4701.833215304426	1
2	7252	4702.408529209971	2
2	7253	4702.861053970344	1
2	7256	4704.558045172579	0
2	7260	4705.954867318567	1
2	7261	4706.550968089587	0
2	7265	4707.16830275877	1
2	7267	4707.189701223883	2
2	7268	4708.453168887719	1
2	7271	4710.292824225388	0
2	7275	4710.648741536052	1
2	7276	4711.962526540532	0
2	7280	4712.555569516475	1
2	7281	4713.584085645414	0
2	7285	4715.458764218718	1
2	7286	4715.479442859142	0
2	7290	4717.067200807759	1
2	7291	4717.342691810316	0
2	7295	4718.888895350463	1
2	7296	4718.963371668457	0
2	7305	4721.795543490337	1
2	7306	4723.407583862045	0
2	7340	4753.395179761658	1
2	7342	4754.005899799311	2
2	7343	4754.778792062619	1
2	7347	4755.931857639297	2
2	7348	4756.062067954087	1
2	7352	4756.960515634318	2
2	7353	4757.963398965665	1
2	7357	4759.408797728995	2
2	7358	4759.516265118153	1
2	7362	4760.790768653058	2
2	7363	4760.813119224304	1
2	7366	4762.21053607616	0
2	7370	4762.475141033092	1
2	7371	4763.659473393144	0
2	7375	4764.25865002245	1
2	7376	4764.981764554078	0
2	7380	4765.187378078049	1
2	7382	4766.120815755059	2
2	7383	4766.717289282413	1
2	7387	4767.381424713211	2
2	7390	4768.463488814452	1
2	7394	4768.812965300177	2
2	7395	4770.28891511842	1
2	7401	4771.055290864831	2
2	7402	4771.688997411759	1
2	7406	4771.991614884329	2
2	7407	4773.133405307339	1
2	7410	4774.5582597202	0
2	7414	4775.781658927101	1
2	7415	4775.869273639315	0
2	7445	4807.742968521805	1
2	7446	4807.857864480864	0
2	7460	4813.976862375942	1
2	7461	4815.620016702506	0
2	7480	4836.72837252877	1
2	7481	4837.80905361055	0
2	7525	4863.923353288108	1
2	7526	4864.515677319584	0
2	7535	4867.348494195505	1
2	7536	4867.975412610419	0
2	7605	4956.759476145433	1
2	7607	4957.570624143028	2
2	7608	4957.988674094063	1
2	7611	4959.346847687942	0
2	7620	4963.635778794564	1
2	7621	4964.408980544247	0
2	7645	4978.001644773985	1
2	7646	4978.028944306834	0
2	7650	4978.66186853918	1
2	7652	4978.691445590357	2
2	7653	4979.384884249432	1
2	7656	4981.213207402093	0
2	7695	5009.192108639174	1
2	7696	5009.706399658582	0
2	7700	5010.138646032944	1
2	7701	5011.432119692004	0
2	7705	5012.230413787727	1
2	7706	5013.280515122114	0
2	7725	5025.095346017151	1
2	7726	5025.266358822337	0
2	7730	5025.652283305388	1
2	7731	5027.070910540907	0
2	7735	5028.188442680649	1
2	7736	5028.665103301904	0
2	7740	5029.37333097364	1
2	7741	5029.931965531534	0
2	7745	5031.408717789511	1
2	7746	5031.886443427517	0
2	7757	5034.759521600577	1
2	7759	5035.218402938954	2
2	7760	5035.664013942367	1
2	7763	5037.025625457278	0
2	7767	5037.506571983913	1
2	7768	5038.4227068758	0
2	7772	5038.868324248773	1
2	7774	5039.380678382216	2
2	7775	5040.309089650809	1
2	7779	5040.87964119377	2
2	7781	5041.387769908893	3
2	7782	5041.574928025193	2
2	7786	5042.12767129884	3
2	7787	5043.524340298995	2
2	7791	5044.281070079939	3
2	7793	5044.294323256018	4
2	7794	5045.036850980334	3
2	7798	5046.374880598244	4
2	7799	5046.418303846605	3
2	7803	5046.54897853956	4
2	7804	5047.808403144069	3
2	7807	5049.679640401378	2
2	7811	5051.330133331981	3
2	7812	5051.577901899293	2
2	7817	5053.054711386599	1
2	7820	5054.304176744298	0
2	7824	5055.555865866814	1
2	7825	5055.556390904487	0
2	7829	5056.568136323744	1
2	7830	5057.169866907262	0
2	7834	5057.43165363828	1
2	7835	5058.462278618701	0
2	7839	5059.190291908123	1
2	7840	5060.394842643142	0
2	7850	5063.348811906805	1
2	7851	5064.932960421257	0
2	7920	5135.097130410368	1
2	7922	5135.101516145171	2
2	7924	5135.494925793891	3
2	7926	5136.74834587087	4
2	7927	5136.926651186727	3
2	7931	5137.933685110325	4
2	7933	5138.27195870351	5
2	7934	5138.295987869285	4
2	7938	5138.321307477318	5
2	7940	5138.92500096436	6
2	7941	5139.979075101808	5
2	7944	5141.194985212431	4
2	7948	5142.337341704375	5
2	7949	5142.779683649772	4
2	7953	5143.103270557183	5
2	7954	5144.127286701136	4
2	7957	5145.876880583026	3
2	7960	5147.837628093035	2
2	7964	5147.939544181355	3
2	7965	5149.596800185599	2
2	7968	5151.220805558794	1
2	7972	5151.921650117237	2
2	7973	5152.584368322649	1
2	7977	5153.322132450601	2
2	7978	5154.004483565734	1
2	7981	5155.210923283034	0
2	7985	5156.368302913681	1
2	7986	5156.93502400522	0
2	7995	5159.079175461157	1
2	7996	5160.547874797781	0
2	8000	5161.151375005341	1
2	8001	5162.392502212425	0
2	8005	5163.850491642474	1
2	8006	5164.249024209281	0
2	8010	5165.095208611162	1
2	8011	5166.086491520604	0
2	8015	5166.189219360501	1
2	8016	5167.81656949324	0
2	8020	5168.383147881267	1
2	8021	5169.462996157719	0
2	8025	5170.722140305348	1
2	8026	5170.865143385804	0
2	8060	5195.288068806198	1
2	8061	5195.467282367261	0
2	8120	5258.085512069896	1
2	8121	5259.464613373589	0
2	8150	5277.064701476805	1
2	8151	5277.628163729088	0
2	8155	5278.136604474719	1
2	8156	5279.315737566763	0
2	8172	5283.872885331195	1
2	8173	5284.571331296578	0
2	8177	5286.042412191311	1
2	8178	5286.180551945694	0
2	8265	5413.180667426244	1
2	8266	5413.982584159163	0
2	8320	5473.239548070478	1
2	8322	5473.606989639346	2
2	8324	5474.118036095427	3
2	8325	5474.695375659678	2
2	8328	5476.248490617413	1
2	8333	5477.531301115815	0
2	8337	5478.566684867229	1
2	8338	5479.06298634949	0
2	8342	5480.655936614605	1
2	8343	5481.019694157493	0
2	8352	5483.457359423638	1
2	8353	5484.168166920346	0
2	8370	5491.025198757663	1
2	8371	5491.197156495737	0
2	8400	5512.236510131599	1
2	8401	5513.264479773763	0
2	8405	5514.613594946823	1
2	8406	5515.047371321815	0
2	8410	5515.15590020869	1
2	8411	5516.30453891893	0
2	8415	5516.579455937002	1
2	8416	5517.581087215702	0
2	8420	5518.476317507197	1
2	8421	5519.347261245075	0
2	8460	5568.614635823611	1
2	8461	5569.99348121102	0
2	8470	5574.642881107536	1
2	8471	5574.991622741888	0
2	8492	5581.724387655725	1
2	8493	5582.799274857237	0
2	8500	5584.858535105645	1
2	8501	5585.990896146267	0
2	8507	5587.643259553164	1
2	8508	5587.74319803518	0
2	8512	5588.307441586355	1
2	8513	5589.23221378912	0
2	8517	5589.257882193853	1
2	8518	5590.744606776058	0
2	8525	5592.555217653406	1
2	8526	5594.020704253285	0
2	8535	5597.161680974226	1
2	8536	5597.717677477083	0
2	8565	5625.337250288265	1
2	8566	5625.989329586748	0
2	8585	5630.792819023251	1
2	8589	5631.208840362184	2
2	8592	5632.16053389908	1
2	8595	5633.876794802036	0
2	8599	5634.081167547631	1
2	8602	5635.266318139259	0
2	8609	5637.464317428429	1
2	8611	5637.710050122707	2
2	8612	5638.086784251045	1
2	8615	5640.065130224276	0
2	8619	5640.798514181317	1
2	8621	5640.91634290498	2
2	8624	5641.619532354559	1
2	8627	5643.595488606217	0
2	8631	5644.442797446004	1
2	8632	5645.508710242445	0
2	8639	5647.291850071375	1
2	8640	5648.449233210842	0
2	8647	5650.725288121524	1
2	8648	5651.754730010601	0
2	8660	5657.648890160037	1
2	8661	5657.734726931046	0
2	8667	5658.056909096278	1
2	8668	5659.254038029428	0
2	8672	5660.147752463968	1
2	8673	5660.543819935139	0
2	8677	5661.018704179007	1
2	8678	5661.916798993464	0
2	8690	5665.441245652082	1
2	8691	5666.476955012925	0
2	8715	5690.69482340178	1
2	8716	5690.953799299385	0
2	8725	5692.765818440371	1
2	8726	5694.224879622481	0
2	8740	5700.535431413924	1
2	8741	5701.689813345748	0
2	8762	5728.056412053252	1
2	8763	5728.178975565093	0
2	8794	5740.325783056994	1
2	8796	5741.198287308866	2
2	8797	5741.255747599894	1
2	8800	5742.572764689656	0
2	8806	5743.71075549954	1
2	8807	5743.807555587957	0
2	8811	5743.812668526937	1
2	8813	5744.001916573587	2
2	8814	5745.325919800433	1
2	8817	5746.796737141716	0
2	8821	5747.198682669188	1
2	8822	5748.370171506139	0
2	8826	5748.545271283289	1
2	8827	5749.613018124918	0
2	8831	5750.21787117352	1
2	8833	5750.421330012154	2
2	8834	5751.259810386407	1
2	8838	5752.598187789994	2
2	8839	5753.175513899135	1
2	8842	5754.878204050096	0
2	8905	5782.194589416537	1
2	8907	5782.357161672918	2
2	8908	5783.654558163181	1
2	8912	5785.129345270149	2
2	8913	5785.62105287113	1
2	8916	5786.918919142566	0
2	8920	5787.843202702282	1
2	8921	5788.55667297472	0
2	8925	5789.222728698092	1
2	8926	5790.46944428873	0
2	8930	5791.86750729648	1
2	8931	5792.367736224502	0
2	8950	5801.007866952933	1
2	8952	5802.015352090676	2
2	8953	5802.091750329699	1
2	8957	5802.234041126366	2
2	8958	5803.931980667602	1
2	8961	5805.551858971979	0
2	8965	5805.871397897039	1
2	8966	5806.894049350138	0
2	8970	5807.175673528327	1
2	8972	5807.292061179396	2
2	8973	5808.530592882971	1
2	8977	5808.683496109358	2
2	8978	5810.444203230331	1
2	8982	5811.722615378867	2
2	8984	5812.127566654089	3
2	8985	5812.355227458628	2
2	8988	5813.684633457439	1
2	8992	5814.19501329997	2
2	8994	5815.310139798968	3
2	8995	5815.613082167285	2
2	8998	5817.271398474986	1
2	9002	5817.527062681953	2
2	9004	5818.499756653398	3
2	9005	5819.246664704161	2
2	9009	5819.690055901515	3
2	9010	5820.705564062076	2
2	9014	5820.71126568185	3
2	9015	5821.908644551935	2
2	9019	5822.560734412936	3
2	9020	5823.372200199182	2
2	9023	5824.587699328887	1
2	9027	5826.372592170271	2
2	9028	5826.505228622037	1
2	9033	5827.73718109798	0
2	9037	5827.996461221487	1
2	9039	5829.157627958705	2
2	9040	5829.487122322026	1
2	9044	5830.645935260712	2
2	9046	5830.850860735146	3
2	9047	5831.032193575393	2
2	9050	5832.888998365927	1
2	9054	5833.112714446352	2
2	9055	5834.544269058633	1
2	9059	5835.514450542946	2
2	9060	5836.172063604149	1
2	9066	5836.995999411076	2
2	9067	5837.47449575268	1
2	9070	5839.041870902817	0
2	9074	5839.9515407012	1
2	9075	5840.656026381593	0
2	9079	5841.412262577657	1
2	9080	5842.643788717467	0
2	9084	5843.818025658572	1
2	9085	5844.080627340976	0
2	9097	5848.490056233971	1
2	9098	5848.728148052249	0
2	9107	5852.061345856669	1
2	9108	5852.313857284528	0
2	9112	5852.602347227465	1
2	9115	5853.958147099581	0
2	9119	5854.454992264046	1
2	9120	5855.595584547114	0
2	9135	5861.747577156618	1
2	9137	5861.84572982834	2
2	9138	5863.464103239172	1
2	9141	5864.762529095963	0
2	9170	5896.48055514175	1
2	9171	5896.660662817359	0
2	9185	5900.801242177918	1
2	9186	5901.760648903602	0
2	9190	5902.534232340765	1
2	9191	5902.975270735824	0
2	9195	5903.468098013747	1
2	9196	5904.737942341694	0
2	9215	5925.147968169192	1
2	9216	5925.986013070997	0
2	9220	5927.28648471958	1
2	9221	5927.537797761094	0
2	9225	5927.790174220341	1
2	9227	5927.867052668846	2
2	9229	5928.000489226135	3
2	9230	5929.520324197728	2
2	9233	5930.985968690123	1
2	9237	5932.002108561472	2
2	9238	5932.560831245724	1
2	9242	5932.674097422808	2
2	9243	5934.128687937315	1
2	9247	5934.197744791709	2
2	9249	5934.573891007148	3
2	9250	5935.414171269107	2
2	9253	5937.368059062156	1
2	9257	5937.976917646634	2
2	9258	5938.621785071622	1
2	9262	5939.658642402001	2
2	9263	5940.322432011496	1
2	9266	5941.6576457051	0
2	9270	5941.910957345498	1
2	9272	5942.940192721366	2
2	9273	5943.248028634805	1
2	9276	5945.134242701847	0
2	9280	5945.946194006339	1
2	9281	5946.560601269957	0
2	9300	5965.890995510374	1
2	9301	5967.64070206021	0
2	9325	5997.567185947773	1
2	9326	5998.940876924673	0
2	9335	6021.463603149578	1
2	9336	6021.73682883796	0
2	9345	6023.180322450654	1
2	9346	6025.093504746603	0
2	9350	6026.043356208069	1
2	9351	6026.340144060711	0
2	9355	6026.933142442986	1
2	9356	6028.310110892514	0
2	9360	6028.412584817262	1
2	9363	6029.890705225403	0
2	9370	6031.764997070115	1
2	9372	6031.837008199083	2
2	9373	6033.626251226823	1
2	9376	6035.55356053521	0
2	9380	6035.62482155918	1
2	9381	6037.052739766027	0
2	9385	6037.509524617256	1
2	9386	6038.796408077861	0
2	9395	6040.839785036048	1
2	9396	6042.42419568619	0
2	9400	6043.586886689262	1
2	9401	6044.171312536879	0
2	9410	6047.374839070598	1
[...]
6	27465	16655.997990837042	12.506033109185
6	27480	16679.417596048355	11.601866546251
6	27490	16688.270409769673	1.971909423545
6	27505	16721.521061640333	3.493030214458
6	27627	16806.882683295554	1.226040903851
6	27816	16886.264905287746	19.969256714987
6	27824	16889.715722114268	36.887613138562
6	27832	16892.715471812199	33.110087490388
6	27895	16939.805561489642	7.158319608749
6	28020	17005.053280056794	14.26395353692
6	28147	17118.042757094587	1.509472478926
6	28215	17145.128636057726	4.116406200149
6	28245	17164.545157505544	5.360186805915
6	28391	17219.0809924607	4.004221756957
6	28399	17222.182477795968	38.898089472545
6	28404	17224.042021572294	11.698936470001
6	28424	17230.131214343646	3.871645149905
6	28459	17241.437994889432	21.601195265483
6	28462	17242.905773046875	10.104353405291
6	28475	17248.05475264758	14.630927875149
6	28527	17279.85852866107	5.228576637422
6	28552	17301.855509279032	2.028282435635
6	28555	17303.781228878644	5.314762691781
6	28574	17313.273049491494	1.38969149068
6	28585	17326.211118464201	1.677365030535
6	28661	17357.49197455772	2.653000692323
6	28694	17368.251427073	3.628419376217
6	28697	17369.899853474056	12.638574539355
6	28700	17371.633497857457	39.29887291271
6	28732	17400.840448411127	3.481935792377
6	28765	17428.503002494644	4.698119848056
6	28821	17452.027018591417	3.597009170661
6	28830	17455.962401228426	17.049988307004
6	28950	17535.956332499621	26.018004035327
6	29025	17572.486937069757	11.905372409879
6	29130	17682.262379907928	4.941937195053
6	29150	17696.231871552111	1.643781173229
6	29275	17786.277365223662	13.685793954919
6	29290	17800.850668083245	1.903111137822
6	29325	17819.747720396547	2.741835225296
6	29392	17878.535701551812	7.318856808774
6	29400	17894.429233583938	1.838466282375
6	29415	17910.669089085494	1.828059837408
6	29420	17915.136865199307	1.224560368061
6	29449	17935.516637421277	6.168131141806
6	29505	17970.805306582449	3.9927468002
6	29567	18042.431537496923	2.12351644019
6	29577	18048.006102405871	8.475008993354
6	29669	18087.518293310301	4.432314263952
6	29850	18182.632897536581	3.829342902578
6	29860	18196.547103599369	1.320175160654
6	30055	18336.701855667387	13.033713932637
6	30072	18348.074658716549	2.825703687322
6	30239	18417.786546732681	18.505225734231
6	30245	18420.880265521641	17.440075758899
6	30275	18442.13501331228	12.011731493838
6	30290	18461.149382088655	5.198722711829
6	30377	18520.220226080263	2.245092923182
6	30480	18589.832858903482	4.165782381689
6	30485	18592.082352709518	1.725896648131
6	30490	18594.454705534277	1.432508878969
6	30495	18597.105356766201	1.7936785575
6	30517	18629.135549874112	1.600975013711
6	30619	18680.333000850046	2.979547188696
6	30632	18686.192374159793	27.952988046319
6	30732	18738.363014497303	2.368090050659
6	30742	18741.486752949602	10.768620246953
6	30862	18851.381297507049	14.729258363735
6	30925	18909.90820253849	3.070449423809
6	31132	19028.233148559956	8.936987769008
6	31227	19063.555483127085	23.07214836562
6	31232	19065.194218936635	8.750053921888
6	31262	19087.496124509988	1.64019684568
6	31370	19131.930194466385	22.330007634144
6	31492	19205.735888353748	15.191687804316
6	31557	19236.165904642462	10.941502273142
6	31565	19239.844888988667	7.488609028386
6	31577	19249.391071232182	1.745004444942
6	31592	19261.591168792504	1.505717221275
6	31625	19274.788445482744	7.247711986105
6	31682	19317.582268041784	9.590240031867
6	31692	19323.885910840083	11.052996746503
6	31707	19337.698782307475	1.540988493338
6	31715	19342.73076866233	1.492687981762
6	31765	19384.100857160864	11.060335453518
6	31774	19387.823153553989	1.475120720826
6	31786	19391.471384783734	3.814069962383
6	32007	19464.451249385708	74.979277945828
6	32025	19471.218209775698	30.87965869814
6	32090	19505.925404998031	1.527999528119
6	32255	19590.791699498641	6.284367329154
6	32267	19595.747440047337	1.489022106114
6	32295	19608.807360851617	7.304498299744
6	32310	19622.110319693313	4.997030309657
6	32322	19636.876671488049	1.918652293645
6	32346	19645.898257554453	4.636245668296
6	32465	19686.703003089962	2.470359131297
6	32492	19695.271975660691	34.357141322552
6	32500	19699.48386469227	12.205001362696
6	32505	19703.608062918789	1.383311457932
6	32560	19732.827781837173	2.977345818441
6	32569	19734.916666788317	18.877703217346
6	32632	19810.438395080461	4.930836749301
6	32881	19892.87124210558	55.527712737619
6	32912	19903.141559169804	3.660641798269
6	32917	19905.092177517888	79.9622914718
6	32940	19916.019441673655	105.99682781647
6	32945	19918.334760584334	1.670209283195
6	32957	19926.752103585833	1.660875576548
6	32967	19930.473673413529	3.850630250552
6	33020	19961.529792627216	4.595179084846
6	33057	20005.789290305659	1.650462143029
6	33107	20022.36634276329	6.846976248051
6	33147	20047.943782924728	1.848017781228
6	33165	20053.912384782971	6.747725060174
6	33240	20100.832942076808	5.908328580866
6	33442	20186.9945398284	26.91830466484
6	33445	20188.249757262307	44.132971999237
6	33470	20222.392282052157	1.735154975764
6	33480	20235.269449774901	1.913606946049
6	33505	20249.139501591759	4.585833204165
6	33589	20280.135654189093	27.086308302359
6	33600	20285.715946981315	30.644154630564
6	33633	20301.773501531475	9.089216289952
6	33687	20322.46178455192	13.289498702065
6	33700	20330.528806820739	19.984706620398
6	33755	20350.007380241443	19.458584086373
6	33945	20495.24221670154	1.746011911146
6	33980	20510.749352106485	2.551994592345
6	34076	20558.634076637833	25.105534761377
6	34151	20585.17533036886	42.28656882996
6	34196	20599.726673723443	57.502786919252
6	34217	20608.80069646152	48.178632257871
6	34250	20620.966481370102	11.453277645977
6	34282	20639.946401837227	2.936350754144
6	34357	20668.66675534788	5.763568471375
6	34360	20670.140202249581	10.198744939026
6	34377	20683.872711732807	3.456542469147
6	34380	20685.681655647615	6.808649974502
6	34554	20745.548775490651	36.221020554473
6	34562	20748.503906038868	59.396510954348
6	34697	20870.232266441504	1.854296693392
6	34702	20871.689320332887	1.547382451798
6	34822	20921.321273743049	13.563655972461
6	34830	20925.370676699357	14.26663861522
6	34954	21022.912831279177	1.632663855888
6	34985	21033.632433506243	11.786723177384
6	35045	21090.566723995971	7.484026136867
6	35055	21103.845306308659	1.592869784869
6	35077	21122.69797382054	12.076443038319
6	35105	21142.540297019373	5.573719639781
6	35327	21308.614391835062	1.685372291319
6	35330	21310.297863802156	2.058048447719
6	35347	21349.618632787509	1.542235230468
6	35365	21359.137322646646	4.689943246171
6	35487	21405.419280248041	1.579404805787
6	35550	21448.389218444733	7.598730276105
6	35565	21462.35596131128	4.587373862996
6	35582	21476.434638891233	1.520191608183
6	35632	21530.317375037675	2.774631658659
6	35680	21548.691885656162	7.629603366606
6	35697	21559.585580100144	2.713111194168
6	35745	21591.14833585372	3.763876345583
6	35795	21620.260065790349	1.976349855401
6	35859	21647.645840836663	1.948199746944
6	35982	21738.172565120501	1.366302521713
6	35997	21743.965893199644	6.613297055564
6	36024	21754.771639222975	4.090534001921
6	36030	21758.09475214551	4.639016233583
6	36039	21761.119245114685	1.33963534385
6	36042	21762.986933756382	2.273422418429
6	36060	21770.208764566344	9.186351526145
6	36124	21794.648485741214	7.766760392665
6	36134	21798.179136858144	22.178461979532
6	36162	21809.069269500941	13.182353239528
6	36235	21856.53546415124	1.49012611676
6	36304	21888.464976980163	8.993827183948
6	36387	21916.610065003027	24.426932439128
6	36424	21929.325289444577	21.312107303514
6	36499	21952.401301435705	62.553736441815
6	36525	21969.009407859543	18.332867832306
6	36584	21995.667714027907	12.088905904807
6	36605	22002.778697226415	7.895642043722
6	36625	22008.826075446142	3.803859850085
6	36690	22056.858189071085	4.387777709432
6	36707	22068.158445387018	3.336608419967
6	36730	22095.384272501711	7.047419150509
6	36740	22109.028901142986	3.131068933968
6	36814	22135.272478876201	6.341652049782
6	36897	22203.87151630559	23.988395483579
6	36970	22239.534820696722	1.868622554839
6	36985	22249.456947148673	2.719488198429
6	36990	22262.224980839432	1.496001443267
6	37112	22305.141055722391	34.539775680187
6	37120	22308.783570731009	16.351367567846
6	37145	22319.198571224557	2.554925482433
6	37150	22327.284665346671	1.544015463814
6	37187	22346.770740432827	2.994591063694
6	37227	22378.631591415636	13.246739533625
6	37230	22380.074458727658	5.275173208491
6	37374	22464.449165073123	4.241759518533
6	37400	22474.020380903727	5.133830486432
6	37435	22496.981978880789	1.438508467562
6	37445	22505.558993052085	5.399748928401
6	37450	22516.191608245612	1.803535371833
6	37467	22537.120644010552	2.528118124224
6	37507	22563.617804620986	4.127088590712
6	37525	22580.392406920639	6.11131538499
6	37607	22619.950194548742	14.560819652293
6	37636	22655.647346673774	3.000888788021
6	37687	22679.146016234301	25.747205056593
6	37810	22798.714876178255	1.724397464283
6	37842	22813.013621128629	13.046400831772
6	37845	22814.734705341327	2.131814966959
6	37865	22827.805169339436	1.746013649367
6	37875	22831.205919944965	1.242036909424
6	37912	22843.318090511093	5.607647495723
6	37934	22849.59719430914	14.926763240086
6	37937	22851.080096909197	12.947592347838
6	37942	22852.324274604561	8.297291861204
6	37965	22880.631519278727	4.886784648895
6	37975	22891.311358348764	1.525903165154
6	38000	22917.40915473726	1.382599841058
6	38025	22931.417352511944	4.512584974119
6	38100	23009.757189187227	1.875088575296
6	38240	23074.503040569222	7.89823275337
6	38270	23108.780535512798	6.725495456651
6	38275	23111.889337387229	1.960410030931
6	38371	23166.629607465947	13.244658518961
6	38415	23182.782277293773	27.322839201149
6	38458	23197.177282610246	32.378168402116
6	38491	23208.163551998035	74.141132301562
6	38497	23211.049109006569	47.093421571973
6	38500	23212.908595313959	52.765376489421
6	38575	23249.511708311307	11.176621181544
6	38655	23338.504344586671	11.462149903155
6	38731	23387.005895762271	5.777403234348
6	38804	23412.7322032058	14.758746876373
6	38820	23421.987813343363	33.997191725452
6	38842	23451.391761053483	6.23632944259
6	38881	23466.788188019438	18.527546060558
6	38890	23471.635171482383	4.87634665659
6	38895	23475.145050766477	18.888764985589
6	38957	23520.647972345265	1.682377944998
6	38997	23546.571238238834	1.535868833587
6	39137	23628.256248320812	2.375061812694
6	39241	23680.326867653318	19.959315005764
6	39284	23693.327802244091	27.061937048926
6	39290	23697.248298820185	15.400769839805
6	39447	23787.159452969806	8.112357071812
6	39470	23796.826136263203	1.345893246867
6	39554	23834.531375986323	1.525577460043
6	39564	23837.99487214385	10.125944265438
6	39600	23863.008755864721	3.408540531061
6	39629	23872.826282996366	4.667149314843
6	39654	23880.592918490114	7.694058264011
6	39659	23882.274536435919	13.39240987927
6	39669	23885.627112784849	14.095666590659
6	39716	23899.576940945561	10.036043323949
6	39785	23948.573900862381	3.894563488647
6	39795	23959.901697633977	1.529703523591
6	39812	23977.770921033429	1.439065914974
6	39870	24004.678073759066	1.734443031438
6	39912	24022.044341858726	6.912344582457
6	40030	24064.852058865779	1.877922754351
6	40095	24102.297778706523	5.512103911893
6	40185	24156.311557851488	4.435790559132
6	40282	24192.890546164503	2.371292641063
6	40290	24196.098557412652	3.04674643493
6	40305	24203.482788399742	2.444663316513
6	40367	24233.27799335005	2.613853202823
6	40445	24274.40215312718	17.142946553599
6	40462	24280.242921198359	1.636120261066
6	40500	24305.44605002204	1.90189326629
6	40545	24346.368597211658	9.369244144796
6	40595	24370.819095880695	1.309849219769
6	40637	24404.405723439949	3.385219865694
6	40682	24418.979174347641	12.295708698124
6	40685	24420.194257409731	21.630710811912
6	40800	24469.302561377432	11.694371177309
6	40860	24489.334254376447	19.161745093443
6	40890	24527.888115844082	1.529803630151
6	41010	24603.388617178457	1.620109411515
6	41022	24607.939520121289	2.511332102154
6	41030	24613.135684980664	1.280847308412
6	41057	24624.84689131032	2.905929289982
6	41097	24644.321678245472	1.905332749337
6	41137	24663.567630507531	1.823740323819
6	41237	24706.698422342042	9.064997809713
6	41315	24751.711379517299	19.667742080738
6	41392	24803.719408357482	4.855958443732
6	41399	24804.91978966311	9.364622615464
6	41415	24844.364949913505	1.284093870409
6	41465	24865.547280922695	2.181877375425
6	41600	24951.884838165622	5.118663986268
6	41652	24976.858237828762	7.241395881439
6	41695	24992.378734389415	4.873743510598
6	41746	25020.091239921934	12.80402889991
6	41762	25026.050853780097	7.8463425543
6	41825	25071.393942587823	1.236503809504
6	41850	25096.546713971255	1.261035881191
6	41860	25113.936931462358	1.334033559635
6	41932	25146.29482815903	12.684362942689
6	41947	25151.283466961461	25.496635041501
6	42025	25203.565613009648	24.897809302219
6	42065	25228.098282217798	3.733900408078
6	42077	25233.883156936156	5.23236633797
6	42175	25288.193946373784	1.235904221423
6	42244	25336.916242570291	12.463986596417
6	42252	25340.012602125156	11.632290042782
6	42270	25348.051702299508	1.746631134301
6	42285	25366.635461726758	1.62248163037
6	42387	25450.508887756711	13.966604087061
6	42392	25451.760707321486	10.619868424386
6	42415	25466.523802161273	14.127265817368
6	42430	25487.004705253231	1.995887565985
6	42472	25500.967729684025	5.78887260276
6	42480	25515.390674553616	1.836631459743
6	42737	25672.981309260465	3.188554987374
6	42755	25710.562382835909	1.929077061452
6	42812	25740.817189928237	18.423189860768
6	42880	25771.43530461295	1.409080414474
6	43094	25884.048890949229	14.290572849623
6	43145	25902.489791623997	4.542492957345
6	43165	25953.592303560968	1.624092685059
6	43287	26014.883718916538	34.277187117566
6	43315	26032.497030401292	14.878596771775
6	43332	26042.774603317961	23.624711424162
6	43367	26057.840714872017	1.831395732798
6	43404	26078.382970177792	2.629991384345
6	43460	26118.253279309175	1.396400554664
6	43540	26183.154067589672	1.393442836404
6	43550	26203.945679969912	3.517729217735
6	43555	26207.7391953475	1.847846782394
6	43570	26222.691308772729	11.20472164047
6	43582	26229.207587063433	1.425922340527
6	43625	26251.430940084885	3.630357019552
6	43720	26290.270125408594	21.775911265646
6	43732	26295.690536224772	10.697663891478
6	43792	26348.03682235054	1.837674510479
6	43795	26349.668990066678	6.79180046455
6	43852	26380.482510774949	7.435385243335
6	43855	26382.374785871798	7.614768544585
6	43875	26398.201120748077	5.939342672465
6	43919	26436.263408776417	4.252219112351
6	43929	26439.635346060105	6.853956218243
6	43954	26448.52137558225	10.268930675613
6	44012	26468.603338858369	20.756763398623
6	44015	26469.816728553805	33.433390452207
6	44035	26485.9867778311	3.501897884422
6	44115	26540.862623302319	4.462010515667
6	44140	26550.323214032722	7.108909266872
6	44145	26564.98785287816	1.637408531271
6	44155	26583.938462517562	1.545737145841
6	44175	26608.479009546914	7.877563205089
6	44230	26645.177375519367	6.85830786372
6	44240	26653.759417603322	18.175709378226
6	44272	26666.374790985792	8.251965800359
6	44282	26669.370156705103	9.158152154252
6	44300	26684.010390714441	1.938807009906
6	44320	26693.819807710859	1.560431906953
6	44332	26697.637184184338	2.468673448013
6	44352	26704.429905375573	25.722042426744
6	44459	26747.461820099779	4.311441637217
6	44520	26796.348707737843	7.892384570937
6	44574	26847.535784886851	11.140744037414
6	44696	26885.740982508353	47.697227400017
6	44704	26889.131514014556	11.362787718218
6	44715	26893.456499492326	11.816877832937
6	44725	26899.20998865254	25.552773372507
6	44813	26928.869831724707	24.295567668093
6	44896	26956.543256929761	29.456592256449
6	44906	26959.260234403295	24.164471729681
6	44977	26983.716019816939	73.546711269411
6	44980	26985.501076569837	27.708867963811
6	45000	26999.605991532874	3.667654083097
6	45025	27028.026830240295	11.264968773233
6	45065	27049.856332917937	2.216698525622
6	45095	27065.159271388757	1.28529490456
6	45100	27068.147438760147	1.447094083019
6	45165	27105.538111956469	1.851356287487
6	45369	27196.113222948818	14.526484121254
6	45394	27205.535797110258	2.623158438038
6	45400	27209.316422821267	4.610980568664
6	45457	27243.445951842186	15.956211987591
6	45572	27297.777171705516	2.152845188093
6	45612	27333.746608524388	2.76849683346
6	45637	27345.317671920393	4.43228794951
6	45682	27366.471496136845	1.661203900244
6	45707	27381.967013153985	1.942906874046
6	45715	27385.679537742932	3.721455189961
6	45801	27435.913349170359	5.049546728642
6	45810	27440.093756836402	4.689983550438
6	45837	27477.778384926516	1.821148853004
6	45846	27479.462143450949	6.471117659628
6	45947	27597.138930053468	1.531998748891
6	46120	27701.316087591353	1.201432132348
6	46160	27723.721045670109	1.603083926998
6	46267	27796.696852537241	16.812528663175
6	46274	27798.359696718116	16.43661598945
6	46332	27845.172956138798	2.333603949898
6	46352	27859.009305348152	1.647665824752
6	46369	27873.856696924791	1.849384743534
6	46405	27889.111533865749	16.635253113457
6	46465	27942.955494871195	6.140175438353
6	46480	27958.603486189965	6.626334600332
6	46522	27991.471954363338	6.117052290809
6	46550	28007.011694324212	9.174906294823
6	46555	28026.924710458803	1.9427465396
6	46582	28036.860667486616	1.989876168966
6	46594	28042.038513935742	1.952723825537
6	46612	28053.714894298808	1.54134262614
6	46622	28057.683877635222	1.829367213883
6	46702	28100.176351502374	1.455371516943
6	46772	28138.80330583751	14.696597323183
6	46775	28140.224844142606	7.315661565069
6	46802	28151.143425013411	6.641023094482
6	46847	28169.328374376889	25.618950929087
6	46855	28172.212595600258	2.661753445639
6	46875	28179.657674292067	17.099262137493
6	46902	28244.776582166252	1.713345823437
6	46930	28285.941840122865	1.846990358457
6	46947	28294.980032094604	1.508363819495
6	46995	28342.180507877096	1.709796420112
6	47075	28391.804174925148	11.502671684212
6	47087	28402.92933349518	1.644231183573
6	47137	28434.764783521432	4.455638220055
6	47152	28443.302480910216	11.179862606348
6	47180	28457.43057462067	12.558081441408
6	47197	28468.108071309317	8.133274389757
6	47225	28480.772937432273	1.807955580577
6	47255	28520.828018719132	4.534359231591
6	47294	28535.814005771799	8.411751100655
6	47302	28538.607947241289	8.257769324103
6	47337	28569.624005069761	1.528529187292
6	47405	28634.485826804396	1.806905230135
6	47440	28663.416590136148	2.306996020652
6	47455	28668.956353791045	2.636332277427
6	47477	28678.672820020724	13.786944499584
6	47502	28687.756830114178	7.227645647506
6	47505	28689.217309521563	4.74280999545
6	47512	28691.225250329112	1.441154246219
6	47575	28731.758248827841	4.702928924188
6	47612	28787.527009546905	1.621653954685
6	47702	28821.083508846703	34.756174024556
6	47707	28822.977432428095	30.087481828757
6	48102	28983.043801254767	26.967292886396
6	48105	28984.759281826566	16.177205249658
6	48115	28989.845230736963	67.081744597901
6	48209	29026.542418227463	16.68845198617
6	48260	29047.283455902293	24.571339261227
6	48275	29052.986900680948	1.400904304907
6	48310	29071.27807054002	1.412732345238
6	48449	29125.647297418207	16.172287110632
6	48555	29187.72293489634	1.570149927028
6	48585	29225.497428520903	1.658269790187
6	48597	29247.046426207736	1.933407107741
6	48620	29265.091731713414	1.886937510408
6	48715	29309.792065203664	9.358971301952
6	48767	29335.314437267801	12.013211207463
6	48825	29359.078650482904	11.944154500784
6	49022	29436.91912506879	10.349936007522
6	49217	29576.311876294135	5.31042335376
6	49237	29593.976502521694	1.345431021042
6	49347	29634.861887058615	32.617431073821
6	49387	29657.070994812309	1.511247597449
6	49402	29663.487540706288	34.36788529818
6	49570	29759.824528346897	3.166152331012
6	49594	29769.226234119487	1.931083668396
6	49622	29783.299611767419	2.858136411995
6	49799	29897.792671885013	3.132642018926
6	49880	29924.868112623447	4.541153604645
6	49897	29929.554509345043	3.069026925961
6	49905	29934.167687871892	41.149640133773

