version 2
run Third_exit_8-0-20191114-11:42:58-9030
attr configname Third_exit_8
attr datetime 20191114-11:42:58
attr experiment Third_exit_8
attr inifile omnetpp.ini
attr iterationvars ""
attr iterationvarsf ""
attr measurement ""
attr network ResponseTimeNetwork
attr processid 9030
attr repetition 0
attr replication #0
attr resultdir results
attr runnumber 0
attr seedset 0
param **.Source.interArrivalTime exponential(6s)
param **.jobPriority bernoulli(0.8)
param **.PS.serviceTimeU1 "uniform(1.2s, 2.0s)"
param **.PS.serviceTimeU2 "uniform(2.4s, 2.8s)"
param **.SS1.serviceTime exponential(1.4s)
param **.SS2.serviceTime exponential(2s)
param **.PS.exitProbability bernoulli(0.8)

vector 0 ResponseTimeNetwork.QueueU1 queueLength:vector ETV
attr interpolationmode sample-hold
attr title "queue length, vector"
vector 1 ResponseTimeNetwork.sink lifeTimeU1:vector ETV
attr interpolationmode none
attr title "lifetime of arrived jobs U1, vector"
attr unit s
vector 2 ResponseTimeNetwork.sink totalServiceTimeU1:vector ETV
attr interpolationmode none
attr title "the total time spent  by arrived jobs U1, vector"
attr unit s
vector 3 ResponseTimeNetwork.sink lifeTime:vector ETV
attr interpolationmode none
attr title "lifetime of arrived jobs, vector"
attr unit s
vector 4 ResponseTimeNetwork.sink totalServiceTime:vector ETV
attr interpolationmode none
attr title "the total time spent  by arrived jobs, vector"
attr unit s
vector 5 ResponseTimeNetwork.SS1 queueLength:vector ETV
attr interpolationmode sample-hold
attr title "queue length, vector"
vector 6 ResponseTimeNetwork.QueueU2 queueLength:vector ETV
attr interpolationmode sample-hold
attr title "queue length, vector"
0	32052	10000.060729569015	135
0	32053	10000.466897139928	134
0	32057	10000.47975710242	135
0	32058	10002.343892367228	134
0	32061	10003.776592104926	133
0	32065	10004.884781698299	134
0	32066	10005.244604504525	133
0	32069	10006.791188464544	132
0	32073	10007.653913342208	133
0	32074	10008.197413465052	132
0	32078	10008.601008254904	133
0	32080	10008.638975211968	134
0	32082	10009.204898170204	135
0	32083	10009.467327936783	134
0	32087	10010.1514625555	135
0	32089	10010.502513574532	136
0	32090	10010.778318361423	135
0	32094	10011.131137438425	136
0	32095	10012.444599371261	135
0	32098	10014.08286741846	134
0	32101	10015.322864213444	133
0	32105	10016.903845196327	134
0	32106	10017.178077553443	133
0	32110	10017.981353395128	134
0	32111	10018.790797678239	133
0	32114	10020.603953423023	132
0	32117	10022.003004001312	131
0	32121	10022.742892570886	132
0	32123	10023.028684165237	133
0	32124	10023.245878888153	132
0	32128	10024.754840008171	133
0	32129	10025.074641638294	132
0	32132	10026.638464958452	131
0	32136	10026.925853354696	132
0	32137	10027.873966818534	131
0	32140	10029.693399961151	130
0	32144	10031.588373377439	131
0	32145	10031.628664207876	130
0	32149	10033.217540020574	131
0	32150	10033.484188605331	130
0	32154	10033.551893717293	131
0	32156	10034.783526955217	132
0	32157	10035.017341318958	131
0	32160	10036.3993408686	130
0	32163	10037.691282124676	129
0	32166	10039.617915170312	128
0	32170	10039.966999840308	129
0	32172	10040.117558536804	130
0	32173	10041.167098443255	129
0	32177	10042.612185624431	130
0	32178	10043.089293294445	129
0	32182	10043.198803308855	130
0	32184	10043.508059112312	131
0	32185	10044.657839580484	130
0	32189	10044.78855497391	131
0	32190	10046.242721052327	130
0	32194	10047.672518504476	131
0	32195	10047.750680287973	130
0	32199	10049.301196491576	131
0	32200	10049.578971735434	130
0	32204	10049.711212254478	131
0	32206	10050.176689620222	132
0	32208	10050.766227751961	133
0	32209	10051.265427028434	132
0	32213	10051.387654074286	133
0	32214	10053.13672719025	132
0	32218	10054.701404818009	133
0	32219	10054.796651706332	132
0	32223	10054.989809588113	133
0	32225	10055.091075044979	134
0	32226	10056.359096163744	133
0	32229	10057.855443094717	132
0	32233	10059.809711867114	133
0	32234	10059.836773462826	132
0	32238	10060.188982404782	133
0	32240	10060.31208745386	134
0	32241	10061.820589559199	133
0	32244	10063.279543734388	132
0	32247	10064.906408172892	131
0	32251	10066.486431293774	132
0	32252	10066.784150949353	131
0	32256	10067.338354897779	132
0	32257	10067.991313777351	131
0	32261	10068.103922583214	132
0	32263	10068.833437864891	133
0	32264	10069.4258671802	132
0	32268	10069.588188922744	133
0	32269	10070.949820377538	132
0	32273	10071.70992343818	133
0	32275	10072.080468534266	134
0	32276	10072.409867971065	133
0	32280	10072.586435295492	134
0	32281	10074.330121232057	133
0	32285	10076.026808501277	134
0	32286	10076.324731004098	133
0	32290	10077.021147117239	134
0	32291	10077.6985780871	133
0	32294	10079.421970345871	132
0	32298	10079.851340959432	133
0	32300	10080.481453908124	134
0	32301	10080.958739554556	133
0	32305	10081.519522127705	134
0	32306	10082.486282722512	133
0	32310	10082.52786617049	134
0	32311	10084.173106908099	133
0	32314	10086.140309044206	132
0	32318	10086.375033241642	133
0	32319	10087.803701192745	132
0	32322	10089.756289101065	131
0	32326	10090.957600940217	132
0	32327	10091.017556144715	131
0	32331	10091.272591030942	132
0	32332	10092.978847010479	131
0	32336	10093.270300263773	132
0	32337	10094.502271133893	131
0	32341	10094.877599044374	132
0	32342	10095.992232281574	131
0	32346	10096.791164098223	132
0	32347	10097.376436041155	131
0	32350	10098.719933714205	130
0	32354	10100.161346709279	131
0	32355	10100.564606195921	130
0	32359	10101.256326104603	131
0	32360	10101.96192500391	130
0	32364	10102.61598018423	131
0	32366	10102.794519375378	132
0	32367	10103.911277601728	131
0	32371	10104.343583731727	132
0	32372	10105.645620264346	131
0	32375	10107.187659921544	130
0	32378	10108.840210572118	129
0	32381	10110.067055622721	128
0	32385	10110.80242671245	129
0	32386	10111.799427712196	128
0	32389	10113.148403631756	127
0	32393	10113.715953861023	128
0	32394	10114.983175665373	127
0	32398	10115.063315446873	128
0	32400	10116.137915557401	129
0	32401	10116.539852324734	128
0	32404	10118.327801326523	127
0	32408	10118.378457046248	128
0	32410	10119.515769418737	129
0	32411	10119.967565774965	128
0	32414	10121.197182874615	127
0	32418	10121.565289455599	128
0	32420	10121.981872396476	129
0	32421	10122.422347500222	128
0	32424	10124.017033406766	127
0	32428	10124.619069620223	128
0	32429	10125.862804812053	127
0	32434	10127.098881147848	126
0	32438	10127.564815590152	127
0	32440	10127.660469535416	128
0	32441	10128.422107901284	127
0	32445	10129.100377488157	128
0	32446	10129.676736288936	127
0	32450	10130.987354524515	128
0	32451	10131.034903013379	127
0	32455	10132.526496541439	128
0	32457	10132.732835000245	129
0	32458	10132.74825325054	128
0	32464	10133.736015237801	129
0	32465	10134.50448245094	128
0	32469	10135.786219927617	129
0	32470	10135.86186491479	128
0	32474	10137.279558314	129
0	32475	10137.730103508614	128
0	32478	10139.191503210597	127
0	32482	10140.234415537293	128
0	32484	10141.002594284425	129
0	32485	10141.06856578444	128
0	32488	10142.877651505031	127
0	32492	10143.463615577355	128
0	32493	10144.468930305027	127
0	32496	10145.772484949649	126
0	32500	10146.068161268803	127
0	32502	10146.929685622454	128
0	32503	10147.324058600374	127
0	32507	10147.480501658024	128
0	32508	10149.108187601574	127
0	32512	10149.212506282427	128
0	32513	10151.020521644548	127
0	32517	10151.20308586577	128
0	32518	10152.721504412264	127
0	32522	10153.322261379104	128
0	32523	10154.479033586428	127
0	32527	10154.875005603822	128
0	32528	10155.7022410708	127
0	32534	10156.398830169804	128
0	32535	10157.158215045602	127
0	32539	10158.349554013819	128
0	32541	10158.697985133707	129
0	32542	10158.925211537675	128
0	32546	10159.840607461269	129
0	32547	10160.227981773437	128
0	32552	10161.626889445865	127
0	32555	10163.573257014015	126
0	32558	10164.863528695562	125
0	32561	10166.156089092278	124
0	32565	10166.777657991072	125
0	32567	10166.837094716233	126
0	32569	10167.856479602524	127
0	32570	10167.872250690171	126
0	32573	10169.118722027773	125
0	32576	10170.869886259595	124
0	32580	10171.146873795808	125
0	32582	10171.246502875289	126
0	32583	10172.348405574123	125
0	32587	10172.494154360006	126
0	32589	10173.324135023716	127
0	32590	10174.3300640604	126
0	32594	10176.08532420167	127
0	32595	10176.284567608173	126
0	32599	10176.894717861527	127
0	32601	10177.819181491222	128
0	32602	10177.855431756052	127
0	32606	10178.317535399615	128
0	32608	10178.787344809985	129
0	32609	10179.120057934756	128
0	32613	10179.61156544739	129
0	32615	10179.657458223511	130
0	32616	10180.411632961454	129
0	32620	10180.773723747068	130
0	32621	10182.153379922593	129
0	32625	10182.32861197593	130
0	32626	10183.538960619317	129
0	32629	10184.837364106672	128
0	32633	10185.770926660983	129
0	32635	10185.774033517628	130
0	32637	10186.085450253772	131
0	32638	10186.499342205236	130
0	32642	10186.876300273536	131
0	32643	10188.385129027674	130
0	32646	10190.208292692015	129
0	32649	10192.159809291782	128
0	32653	10193.108293146883	129
0	32655	10193.524602945099	130
0	32657	10193.714893967665	131
0	32658	10193.985963876965	130
0	32662	10194.499590772545	131
0	32663	10195.687459109212	130
0	32667	10196.12330234892	131
0	32669	10196.439157704053	132
0	32670	10197.597571229051	131
0	32674	10198.662621886967	132
0	32675	10198.901680092561	131
0	32679	10198.987593072105	132
0	32680	10200.799410075555	131
0	32684	10201.994048406368	132
0	32685	10202.21117917155	131
0	32688	10203.780420965935	130
0	32692	10204.881931447177	131
0	32694	10205.053295130351	132
0	32695	10205.579879454757	131
0	32699	10206.09733397147	132
0	32701	10206.714317883923	133
0	32702	10207.438539709012	132
0	32705	10209.247035345296	131
0	32708	10210.912853600877	130
0	32712	10211.277402676431	131
0	32713	10212.693236326473	130
0	32717	10213.274706927411	131
0	32718	10214.199130107882	130
0	32721	10215.580923906202	129
0	32725	10216.016793205137	130
0	32726	10217.329015181074	129
0	32730	10218.778530378972	130
0	32731	10218.974149830872	129
0	32735	10219.966240138288	130
0	32736	10220.679879007535	129
0	32739	10222.608583773719	128
0	32742	10223.831349203968	127
0	32746	10223.945503659229	128
0	32748	10224.457227979094	129
0	32749	10225.594447724009	128
0	32753	10226.200904471175	129
0	32756	10226.990903915139	128
0	32760	10227.331246527866	129
0	32762	10228.869748449525	130
0	32763	10228.950906135934	129
0	32766	10230.21349838269	128
0	32770	10231.137527718197	129
0	32771	10232.055065999227	128
0	32774	10233.292088954011	127
0	32778	10233.816210626365	128
0	32779	10235.094730233448	127
0	32782	10236.295975406329	126
0	32786	10236.666224257132	127
0	32788	10237.105151574814	128
0	32790	10237.82248861949	129
0	32791	10238.115355276923	128
0	32795	10238.205932047065	129
0	32796	10239.709002876516	128
0	32800	10240.802047911832	129
0	32801	10241.597506098497	128
0	32804	10243.100488024812	127
0	32808	10243.79780611226	128
0	32809	10245.058895897541	127
0	32813	10245.113260556901	128
0	32814	10246.447121156055	127
0	32818	10247.964191520443	128
0	32819	10248.00058679362	127
0	32822	10249.665584884073	126
0	32826	10250.442099200723	127
0	32828	10250.442388966744	128
0	32830	10250.678300533727	129
0	32831	10250.89834845015	128
0	32834	10252.117339343253	127
0	32838	10253.452997242383	128
0	32839	10254.022579826276	127
0	32842	10255.461001402932	126
0	32845	10256.722743357765	125
0	32848	10258.689591174247	124
0	32852	10258.804341815206	125
0	32854	10258.882483712832	126
0	32856	10259.21793228465	127
0	32858	10259.624486480331	128
0	32859	10260.054588408442	127
0	32863	10260.660216950951	128
0	32864	10261.388853592844	127
0	32868	10261.755478843431	128
0	32869	10263.001417553471	127
0	32873	10263.093893080551	128
0	32874	10264.372294822009	127
0	32878	10265.681305878562	128
0	32879	10265.781465270044	127
0	32883	10266.608052937882	128
0	32885	10267.305152713539	129
0	32886	10267.502014542231	128
0	32889	10269.246952174836	127
0	32893	10270.20694935497	128
0	32894	10270.560971901053	127
0	32898	10271.34905989564	128
0	32899	10272.069725173013	127
0	32902	10273.387566389376	126
0	32906	10274.249738357721	127
0	32907	10274.608755875611	126
0	32911	10275.564232310222	127
0	32912	10276.024430613079	126
0	32915	10277.428442785934	125
0	32919	10278.27835992109	126
0	32921	10278.370321209665	127
0	32922	10278.860108862304	126
0	32926	10279.661518048907	127
0	32927	10280.632456846208	126
0	32930	10281.846044929743	125
0	32934	10282.645255001985	126
0	32935	10283.5679988584	125
0	32939	10284.652581285763	126
0	32941	10284.726631583711	127
0	32942	10284.821797138125	126
0	32946	10285.775385992826	127
0	32947	10286.356665119015	126
0	32951	10287.565165611216	127
0	32952	10287.851015300908	126
0	32956	10287.928891218838	127
0	32957	10289.180735396453	126
0	32961	10289.535485125668	127
0	32962	10290.683924275123	126
0	32965	10292.097383562334	125
0	32968	10293.377819072314	124
0	32972	10293.412825604572	125
0	32974	10294.651491805554	126
0	32975	10294.99262582776	125
0	32979	10295.70312120093	126
0	32980	10296.269777094245	125
0	32983	10297.668042005457	124
0	32987	10298.097424436643	125
0	32990	10299.425011209257	124
0	32994	10299.778051319691	125
0	32996	10300.200842312615	126
0	32997	10300.990424698822	125
0	33000	10302.416570342749	124
0	33004	10302.749986695741	125
0	33006	10302.93054707384	126
0	33007	10303.734581391744	125
0	33011	10304.990199210323	126
0	33012	10305.660009174652	125
0	33015	10307.195661815673	124
0	33018	10308.705534767777	123
0	33021	10309.956866032675	122
0	33024	10311.635738212288	121
0	33028	10312.860649601808	122
0	33029	10312.935180869744	121
0	33033	10313.973246558107	122
0	33035	10314.470871039634	123
0	33036	10314.76765567609	122
0	33040	10314.946101956714	123
0	33042	10314.970439082734	124
0	33043	10316.368409897246	123
0	33047	10317.426955483878	124
0	33048	10317.954813921497	123
0	33051	10319.709751519793	122
0	33055	10320.632613668945	123
0	33057	10320.986387746134	124
0	33059	10321.056592082686	125
0	33060	10321.059485261747	124
0	33064	10321.143236692366	125
0	33066	10322.608144510867	126
0	33067	10322.894523262837	125
0	33070	10324.241417626523	124
0	33074	10325.922835944206	125
0	33075	10326.108301067398	124
0	33079	10326.361829060325	125
0	33081	10326.938921297408	126
0	33082	10328.004669657395	125
0	33086	10328.01922414608	126
0	33088	10328.90895906407	127
0	33090	10329.026720853894	128
0	33091	10329.710252492548	127
0	33095	10330.272345822503	128
0	33097	10330.755833785919	129
0	33100	10331.218430260987	128
0	33103	10332.523472923645	127
0	33107	10333.279538148094	128
0	33108	10333.934570990549	127
0	33111	10335.412786892103	126
0	33115	10336.35711927274	127
0	33116	10336.64423504197	126
0	33119	10338.128486650297	125
0	33123	10338.384869916139	126
0	33125	10339.296846350302	127
0	33127	10339.434457663245	128
0	33128	10339.90566403591	127
0	33132	10340.103269147453	128
0	33134	10340.433106329593	129
0	33135	10341.40611717333	128
0	33139	10342.208704006276	129
0	33141	10342.524192184028	130
0	33142	10342.793812828184	129
0	33146	10343.260652443689	130
0	33147	10344.123284500697	129
0	33151	10345.311053112813	130
0	33152	10346.077964095817	129
0	33156	10347.502160468939	130
0	33157	10347.620583637291	129
0	33160	10349.543879666598	128
0	33164	10350.217073161818	129
0	33166	10350.874131710465	130
0	33167	10351.304021414415	129
0	33171	10352.26435865005	130
0	33173	10352.477960972631	131
0	33174	10352.908037228555	130
0	33178	10353.350521548589	131
0	33179	10354.817858085268	130
0	33182	10356.72258300823	129
0	33186	10357.016367337787	130
0	33188	10357.883353374939	131
0	33190	10358.192299830172	132
0	33191	10358.474561539524	131
0	33195	10358.516942398204	132
0	33197	10359.050914766336	133
0	33198	10359.935075634018	132
0	33202	10361.303931626532	133
0	33204	10361.817899490026	134
0	33205	10361.859311573439	133
0	33208	10363.205032459878	132
0	33212	10364.264248247249	133
0	33214	10364.785091030148	134
0	33215	10364.795663872593	133
0	33218	10366.259073700801	132
0	33222	10366.686842034244	133
0	33223	10367.883235030853	132
0	33227	10368.764179995728	133
0	33228	10369.124718555108	132
0	33232	10369.770465984091	133
0	33234	10370.227758152526	134
0	33235	10370.399350293212	133
0	33239	10370.680876221964	134
0	33240	10371.740895666413	133
0	33244	10372.129487295643	134
0	33245	10373.736771959484	133
0	33249	10374.094099417383	134
0	33253	10374.443334488847	135
0	33254	10375.461453926422	134
0	33258	10376.844402932854	135
0	33259	10377.325601196148	134
0	33263	10377.403008177118	135
0	33265	10377.446641666087	136
0	33266	10378.537401254148	135
0	33270	10379.689453027974	136
0	33271	10380.172188178868	135
0	33275	10381.494591117148	136
0	33276	10381.861965113365	135
0	33280	10382.171052211427	136
0	33281	10383.207800871179	135
0	33285	10384.448131953115	136
0	33286	10385.027698376075	135
0	33290	10385.925149702808	136
0	33291	10386.406439016432	135
0	33295	10387.984185191321	136
0	33296	10388.257907476508	135
0	33300	10388.678332769387	136
0	33301	10389.484318253071	135
0	33305	10390.144405846771	136
0	33307	10390.440162008246	137
0	33309	10390.968021135842	138
0	33310	10390.998989798733	137
0	33314	10392.012178313873	138
0	33315	10392.862001586006	137
0	33318	10394.80187869002	136
0	33321	10396.022692908765	135
0	33325	10396.590834425787	136
0	33326	10397.466430125059	135
0	33330	10398.002616336283	136
0	33331	10399.237731264578	135
0	33335	10400.595901275212	136
0	33338	10401.000561515288	135
0	33342	10401.101432113969	136
0	33343	10402.213753131264	135
0	33347	10402.506232553642	136
0	33349	10402.598875607859	137
0	33351	10403.642893399155	138
0	33352	10403.941857555741	137
0	33355	10405.622225408675	136
0	33359	10405.771163744747	137
0	33361	10406.009618038147	138
0	33362	10407.236339755216	137
0	33366	10407.973038404164	138
0	33367	10409.020838812598	137
0	33371	10409.818258513464	138
0	33373	10410.926963836894	139
0	33374	10410.959721584291	138
0	33377	10412.750884799891	137
0	33380	10413.95936515578	136
0	33384	10414.341303889458	137
0	33386	10414.566737411452	138
0	33388	10414.737004284145	139
0	33389	10415.557151274615	138
0	33393	10415.646728175847	139
0	33395	10416.544760589593	140
0	33396	10416.891969960042	139
0	33399	10418.17666438897	138
0	33402	10419.953610771567	137
0	33406	10421.499293769172	138
0	33407	10421.618517280229	137
0	33411	10422.209795753657	138
0	33412	10423.55841771704	137
0	33415	10425.375827449792	136
0	33419	10426.515384720686	137
0	33421	10426.660615509475	138
0	33422	10427.355339280003	137
0	33428	10428.281962832972	138
0	33430	10428.404875733297	139
0	33432	10428.483659511552	140
0	33433	10429.309030258515	139
0	33437	10429.490555136727	140
0	33438	10430.839932798081	139
0	33442	10431.12093558607	140
0	33444	10431.777922404027	141
0	33445	10432.766950488695	140
0	33448	10434.724320031003	139
0	33452	10435.397574955213	140
0	33453	10436.137714377836	139
0	33457	10436.158177079335	140
0	33458	10437.793310751439	139
0	33461	10439.661116618336	138
0	33465	10441.358044723902	139
0	33466	10441.519635783368	138
0	33470	10442.317265004925	139
0	33472	10442.670608318972	140
0	33473	10442.742159077571	139
0	33477	10443.269056392325	140
0	33479	10444.271059688612	141
0	33480	10444.631827189633	140
0	33483	10446.42229835675	139
0	33488	10447.802906639175	138
0	33491	10449.258522399747	137
0	33495	10450.804893996791	138
0	33496	10451.166759890923	137
0	33500	10451.198461810126	138
0	33502	10451.237719509994	139
0	33503	10452.943770309584	138
0	33507	10453.893087922427	139
0	33509	10454.704525768027	140
0	33510	10454.902620343724	139
0	33513	10456.134805512475	138
0	33517	10456.474278332133	139
0	33518	10457.600306419702	138
0	33522	10458.656880942495	139
0	33523	10459.570209812233	138
0	33526	10461.266982273431	137
0	33530	10461.626277020949	138
0	33532	10461.81621130125	139
0	33533	10462.560517573961	138
0	33537	10463.152546151797	139
0	33538	10464.296631121681	138
0	33542	10465.238267806065	139
0	33543	10465.725199446128	138
0	33546	10467.119136003823	137
0	33550	10468.931134509783	138
0	33551	10468.950179351539	137
0	33554	10470.467292490274	136
0	33558	10471.066977849249	137
0	33560	10471.388471055207	138
0	33561	10471.962657807067	137
0	33564	10473.177279481709	136
0	33567	10474.851062090926	135
0	33571	10475.813061592745	136
0	33572	10476.424939366102	135
0	33575	10477.841809087105	134
0	33579	10478.775494901081	135
0	33580	10479.486060853533	134
0	33584	10479.584852906819	135
0	33586	10479.652062610911	136
0	33588	10480.151324378592	137
0	33590	10480.80433726911	138
0	33591	10480.86913174954	137
0	33594	10482.212558566637	136
0	33598	10482.551036137032	137
0	33600	10483.141492797622	138
0	33601	10483.803121172681	137
0	33604	10485.296995533861	136
0	33608	10485.576765408239	137
0	33610	10485.841515088072	138
0	33611	10486.977248353183	137
0	33614	10488.79946798519	136
0	33617	10490.160553182147	135
0	33621	10491.115651947284	136
0	33622	10491.611474137984	135
0	33625	10492.905997658379	134
0	33628	10494.251813140556	133
0	33632	10495.647607603757	134
0	33634	10495.702149099517	135
0	33635	10496.019976969667	134
0	33639	10496.200448308803	135
0	33641	10496.366989699054	136
0	33642	10497.734302902825	135
0	33646	10498.220389353833	136
0	33648	10498.300259601861	137
0	33650	10499.035753367824	138
0	33652	10499.211704638466	139
0	33653	10499.564729397788	138
0	33657	10499.711893218083	139
0	33658	10501.086737445041	138
0	33662	10501.533938073062	139
0	33664	10501.602207717077	140
0	33665	10502.315054642267	139
0	33669	10502.879793414319	140
0	33670	10504.178365650631	139
0	33674	10504.553934852777	140
0	33676	10505.76637255828	141
0	33677	10505.766668893814	140
0	33680	10507.473912338026	139
0	33683	10509.119678748258	138
0	33686	10510.410837834187	137
0	33690	10510.575994592459	138
0	33691	10511.822913267695	137
0	33696	10513.268265081801	136
0	33700	10514.42562854635	137
0	33701	10514.774090397962	136
0	33705	10515.185199815621	137
0	33707	10515.993408114958	138
0	33708	10516.307962627754	137
0	33712	10517.284290782355	138
0	33713	10517.997484155789	137
0	33717	10518.930384482749	138
0	33719	10519.365547584339	139
0	33720	10519.453200885139	138
0	33724	10519.679392404147	139
0	33725	10520.864915285118	138
0	33729	10522.306535643789	139
0	33730	10522.321521863014	138
0	33734	10523.728178435943	139
0	33735	10523.730839203716	138
0	33738	10525.362624696129	137
0	33741	10527.162644997285	136
0	33745	10527.962102657349	137
0	33747	10528.113370754559	138
0	33749	10528.121512162084	139
0	33750	10528.727291826391	138
0	33753	10529.943701786408	137
0	33757	10530.051869116439	138
0	33758	10531.240943913022	137
0	33762	10532.077260826777	138
0	33763	10533.005990780005	137
0	33766	10534.924051602231	136
0	33770	10536.276921170796	137
0	33771	10536.321429858403	136
0	33775	10536.832889755079	137
0	33777	10537.335745288359	138
0	33779	10537.612021698198	139
0	33780	10537.964550847234	138
0	33784	10538.36769891049	139
0	33785	10539.808942703204	138
0	33789	10539.909574209284	139
0	33791	10540.034986062297	140
0	33792	10541.263210451649	139
0	33796	10541.469038364498	140
0	33797	10543.099328392045	139
0	33800	10544.345986092509	138
0	33804	10545.586522643203	139
0	33806	10546.001986096271	140
0	33807	10546.17339044013	139
0	33811	10546.253054252881	140
0	33813	10546.28442478579	141
0	33814	10547.522407206566	140
0	33817	10549.377370706991	139
0	33821	10549.723939769646	140
0	33823	10550.549326631193	141
0	33824	10551.23119294294	140
0	33828	10551.447001220284	141
0	33829	10552.805117859178	140
0	33833	10553.591478080075	141
0	33835	10553.963443536181	142
0	33836	10554.381289243557	141
0	33840	10555.452489490317	142
0	33841	10555.755920036555	141
0	33844	10557.010228685894	140
0	33850	10558.259735965352	141
0	33852	10558.504205530127	142
0	33853	10558.731941704125	141
0	33856	10560.564650715933	140
0	33859	10561.947703059436	139
0	33863	10562.329593697963	140
0	33864	10563.70847353083	139
0	33868	10563.812412512368	140
0	33870	10564.287838792943	141
0	33871	10565.578574916021	140
0	33875	10565.749976109715	141
0	33876	10567.296480829501	140
0	33879	10569.134937343792	139
0	33882	10570.641324861952	138
0	33885	10572.450985075765	137
0	33889	10572.563720348836	138
0	33890	10573.786784331173	137
0	33893	10575.299367878072	136
0	33896	10576.534110411115	135
0	33900	10577.666577799296	136
0	33901	10578.315970886543	135
0	33905	10578.877603327168	136
0	33906	10579.709956199906	135
0	33910	10579.899678500311	136
0	33911	10581.055987232222	135
0	33914	10582.27492884793	134
0	33918	10582.377783499263	135
0	33919	10583.825890821076	134
0	33923	10584.700842636242	135
0	33924	10585.114422298453	134
0	33928	10585.973509582498	135
0	33930	10586.101553225475	136
0	33932	10586.555770744788	137
0	33934	10586.561147619945	138
0	33935	10586.911371519647	137
0	33939	10587.082870131426	138
0	33941	10587.494494923289	139
0	33943	10588.331122110661	140
0	33944	10588.700700400441	139
0	33948	10588.790857951413	140
0	33949	10590.24715581075	139
0	33953	10590.798921588024	140
0	33955	10590.889444123083	141
0	33957	10591.492377661061	142
0	33958	10591.674065584733	141
0	33962	10592.497839633124	142
0	33964	10592.563595485801	143
0	33965	10593.158661660782	142
0	33969	10593.743451477035	143
0	33971	10594.23579131546	144
0	33972	10594.982326328053	143
0	33976	10595.507793084205	144
0	33977	10596.378969692855	143
0	33981	10596.618914410332	144
0	33983	10597.150862747666	145
0	33984	10597.762933504439	144
0	33987	10599.634583010196	143
0	33990	10600.853324670016	142
0	33993	10602.444386529594	141
0	33997	10602.814629040865	142
0	33998	10604.315058501481	141
0	34001	10605.6173957244	140
0	34004	10607.238493081785	139
0	34007	10609.170386148102	138
0	34011	10610.03965404293	139
0	34012	10610.830366318158	138
0	34016	10611.203792145144	139
0	34018	10611.517313529173	140
0	34019	10612.282800080857	139
0	34023	10612.3226617785	140
0	34025	10612.838239051189	141
0	34026	10613.678452089472	140
0	34030	10614.23763310618	141
0	34031	10615.025154922387	140
0	34034	10616.568191046683	139
0	34037	10617.847637217348	138
0	34041	10619.004626924539	139
0	34042	10619.697578492803	138
0	34046	10620.073146973068	139
0	34048	10620.575194672897	140
0	34049	10621.494546064963	139
0	34053	10622.69138512486	140
0	34055	10623.101903117585	141
0	34056	10623.386287268666	140
0	34060	10623.459999384973	141
0	34061	10624.763500843239	140
0	34065	10624.935202664974	141
0	34067	10625.811472165578	142
0	34068	10626.735329445866	141
0	34072	10626.780966174921	142
0	34073	10628.375915422146	141
0	34077	10629.79231002452	142
0	34078	10630.348706201692	141
0	34082	10630.607579501702	142
0	34083	10631.743117227261	141
0	34086	10633.170838529472	140
0	34090	10633.971333243813	141
0	34091	10634.738490189095	140
0	34095	10635.443244842595	141
0	34096	10636.738325538714	140
0	34100	10637.526113697082	141
0	34101	10638.136477488135	140
0	34105	10638.368828870454	141
0	34106	10639.881838432183	140
0	34109	10641.552613739712	139
0	34113	10643.030828681876	140
0	34114	10643.51328440555	139
0	34118	10643.968594176474	140
0	34119	10645.117273889525	139
0	34123	10645.22861433753	140
0	34124	10646.751429098701	139
0	34128	10647.65598366413	140
0	34129	10648.271220564885	139
0	34133	10648.509869037773	140
0	34135	10649.03142141062	141
0	34136	10649.814594576737	140
0	34140	10650.073884153859	141
0	34142	10650.776734877243	142
0	34143	10651.455810323587	141
0	34147	10652.234239883412	142
0	34149	10652.257218115546	143
0	34150	10653.440600350915	142
0	34154	10653.513513807747	143
0	34156	10654.657130048765	144
0	34157	10654.820812860175	143
0	34161	10654.912663366301	144
0	34163	10655.128728407073	145
0	34164	10656.639829000688	144
0	34168	10657.925575136325	145
0	34169	10657.930706620633	144
0	34172	10659.250543443158	143
0	34175	10660.771619775749	142
0	34179	10660.827634455419	143
0	34180	10662.738376703716	142
0	34184	10663.911625661679	143
0	34185	10664.405258133306	142
0	34189	10665.970787847629	143
0	34191	10666.072195219299	144
0	34192	10666.331525163024	143
0	34195	10667.896195238686	142
0	34199	10669.233821102522	143
0	34200	10669.642246629528	142
0	34203	10671.265192499056	141
0	34207	10671.501234969915	142
0	34209	10671.750815487983	143
0	34211	10672.256113156592	144
0	34212	10672.75958458022	143
0	34218	10673.433749627679	144
0	34219	10673.988445008963	143
0	34222	10675.825228218779	142
0	34226	10675.990070167676	143
0	34227	10677.263024223827	142
0	34231	10677.775835470692	143
0	34233	10677.940074262394	144
0	34234	10679.229416501753	143
0	34238	10679.676608927887	144
0	34241	10681.209076814771	143
0	34245	10682.217681147524	144
0	34246	10683.000827030883	143
0	34250	10683.028156679194	144
0	34252	10683.228945567896	145
0	34253	10684.794864333839	144
0	34257	10684.834686883926	145
0	34258	10686.01340937768	144
0	34261	10687.608177690626	143
0	34265	10687.974626161323	144
0	34266	10689.032252495595	143
0	34270	10690.313613645286	144
0	34271	10690.547825919696	143
0	34275	10690.856911089113	144
0	34277	10691.683946436604	145
0	34279	10692.080685477151	146
0	34280	10692.284673195937	145
0	34283	10693.565542181068	144
0	34287	10694.365385633503	145
0	34289	10694.550874176864	146
0	34290	10695.198456577816	145
0	34294	10696.007314955611	146
0	34296	10696.274305979446	147
0	34297	10696.566633098246	146
0	34301	10697.161501182228	147
0	34302	10698.329024084517	146
0	34305	10699.732493939483	145
0	34309	10700.530813443986	146
0	34310	10701.190200704382	145
0	34314	10701.439592415216	146
0	34316	10702.829765532946	147
0	34317	10703.118797435844	146
0	34321	10703.824358972469	147
0	34322	10704.925944427075	146
0	34326	10705.515890724889	147
0	34329	10706.763475626568	146
0	34332	10708.301440454508	145
0	34336	10709.578307253402	146
0	34337	10709.784637423466	145
0	34340	10711.124445358339	144
0	34344	10711.504512232971	145
0	34345	10712.728487255099	144
0	34349	10713.196563680059	145
0	34350	10714.396148343804	144
0	34354	10714.960353214446	145
0	34355	10716.291552090506	144
0	34359	10716.403350227438	145
0	34360	10717.732372496883	144
0	34364	10719.18231466173	145
0	34365	10719.32367860009	144
0	34371	10720.27108064972	145
0	34372	10720.873175071041	144
0	34376	10721.044485360277	145
0	34377	10722.863993043314	144
0	34381	10723.392809037054	145
0	34382	10724.292095010403	144
0	34385	10725.63172353753	143
0	34388	10727.439243904363	142
0	34392	10727.711171305801	143
0	34394	10728.012574038137	144
0	34395	10729.179762590352	143
0	34399	10729.280608383075	144
0	34401	10730.571599404286	145
0	34402	10731.179076731253	144
0	34405	10732.791696934264	143
0	34409	10733.314258132382	144
0	34410	10734.453826852936	143
0	34414	10734.471044431475	144
0	34416	10734.83490132721	145
0	34417	10735.866618393223	144
0	34421	10736.211024307037	145
0	34422	10737.481126551192	144
0	34426	10738.808997695688	145
0	34427	10739.287922576677	144
0	34431	10739.890063840063	145
0	34432	10740.946063326906	144
0	34436	10741.837910804438	145
0	34438	10741.909086542675	146
0	34439	10742.250247043978	145
0	34443	10742.311818178352	146
0	34446	10743.855024010922	145
0	34449	10745.612915597159	144
0	34453	10746.131687344302	145
0	34455	10746.805695783558	146
0	34456	10747.446493295442	145
0	34460	10748.472941671414	146
0	34462	10748.625067074006	147
0	34463	10748.931382985461	146
0	34466	10750.560539663445	145
0	34470	10751.624046598128	146
0	34471	10752.176029558342	145
0	34475	10753.599977838798	146
0	34476	10753.871914005514	145
0	34479	10755.18854437587	144
0	34483	10755.449645458364	145
0	34484	10756.77052272712	144
0	34488	10757.287668381425	145
0	34489	10758.657057862777	144
0	34493	10759.205120700312	145
0	34494	10760.621058000859	144
0	34497	10761.975718543541	143
0	34501	10763.337491264386	144
0	34502	10763.742368155953	143
0	34506	10763.968173502748	144
0	34507	10765.166752443884	143
0	34511	10766.011841736773	144
0	34512	10766.729865904388	143
0	34516	10767.301505702103	144
0	34517	10768.022058338908	143
0	34521	10768.685918613147	144
0	34522	10769.495754989473	143
0	34525	10771.099986404417	142
0	34528	10773.030977799235	141
0	34531	10774.362437756782	140
0	34535	10774.791476738264	141
0	34537	10774.795807556341	142
0	34539	10775.088493449909	143
0	34541	10775.779576739377	144
0	34542	10776.082384927807	143
0	34546	10776.898884288614	144
0	34547	10777.678124809129	143
0	34551	10778.076822174738	144
0	34553	10778.901852416681	145
0	34555	10779.041445906299	146
0	34556	10779.607106725922	145
0	34560	10780.232083923034	146
0	34561	10780.858159206299	145
0	34564	10782.472241956418	144
0	34568	10782.643277155932	145
0	34570	10783.876463858369	146
0	34571	10784.361879041468	145
0	34575	10785.307211442412	146
0	34576	10785.852947165122	145
0	34579	10787.828988779573	144
0	34583	10788.416198969672	145
0	34584	10789.741071453741	144
0	34588	10791.35891317393	145
0	34589	10791.468170280433	144
0	34593	10792.56598983306	145
0	34595	10793.371365583219	146
0	34596	10793.40325766006	145
0	34599	10795.08066470237	144
0	34603	10796.449103056476	145
0	34604	10796.873846339858	144
0	34608	10797.440902233986	145
0	34609	10798.601137242704	144
0	34612	10800.316088041901	143
0	34615	10802.048725296981	142
0	34619	10802.720279822441	143
0	34620	10803.739712730102	142
0	34623	10805.283921748452	141
0	34626	10806.711438977957	140
0	34630	10807.216702849464	141
0	34632	10807.445879731707	142
0	34633	10808.303132986516	141
0	34636	10810.238256175868	140
0	34640	10811.391595192633	141
0	34641	10812.092431447334	140
0	34645	10812.374158430453	141
0	34649	10812.845724124359	142
0	34650	10813.839695486478	141
0	34653	10815.155010904051	140
0	34657	10815.639548628838	141
0	34660	10817.132427085615	140
0	34664	10818.486428063812	141
0	34666	10818.50065886723	142
0	34667	10818.840359234675	141
0	34670	10820.481586835771	140
0	34673	10822.368101862311	139
0	34676	10823.810679594293	138
0	34680	10824.34619448195	139
0	34682	10825.411540761365	140
0	34683	10825.772333589248	139
0	34687	10826.041045918931	140
0	34689	10826.586341318528	141
0	34690	10827.051973269	140
0	34694	10827.059136128052	141
0	34696	10827.597806043814	142
0	34697	10828.909656571276	141
0	34701	10829.040772137894	142
0	34703	10829.297083544267	143
0	34704	10830.485266633756	142
0	34708	10830.614869276507	143
0	34709	10832.106853984162	142
0	34713	10832.866748286713	143
0	34714	10833.573758393578	142
0	34717	10834.864669937506	141
0	34721	10835.715948495053	142
0	34723	10836.163019039477	143
0	34724	10836.33110711766	142
0	34727	10837.982926201872	141
0	34731	10838.079227357403	142
0	34733	10839.071239217496	143
0	34734	10839.22658733917	142
0	34738	10839.616476666233	143
0	34740	10840.085202594774	144
0	34741	10841.219877807289	143
0	34745	10842.649062505226	144
0	34746	10842.99507927937	143
0	34750	10843.117006385102	144
0	34752	10843.389485062684	145
0	34753	10844.641256056405	144
0	34757	10846.140742534736	145
0	34758	10846.376764606363	144
0	34763	10847.70612336514	143
0	34767	10848.912681493136	144
0	34768	10849.406912732734	143
0	34772	10849.725630168677	144
0	34773	10851.210727636008	143
0	34777	10852.550261074257	144
0	34778	10852.908556821062	143
0	34782	10853.159498223045	144
0	34783	10854.890520184724	143
0	34787	10855.23921845551	144
0	34788	10856.639978634058	143
0	34792	10857.212170883037	144
0	34793	10858.282050016201	143
0	34797	10858.855495267543	144
0	34798	10859.669379791482	143
0	34801	10860.880809314414	142
0	34804	10862.085011908836	141
0	34808	10863.169016349442	142
0	34809	10864.013814015179	141
0	34813	10864.071693470499	142
0	34815	10864.614721598381	143
0	34816	10865.43508629953	142
0	34820	10865.609762695052	143
0	34821	10867.126374795153	142
0	34825	10867.331060548803	143
0	34826	10868.969359177216	142
0	34830	10868.974739205598	143
0	34831	10870.727733885921	142
0	34835	10871.022530699239	143
0	34837	10871.684824478463	144
0	34838	10872.665576209366	143
0	34842	10873.47459585069	144
0	34843	10873.895152718067	143
0	34846	10875.844731516257	142
0	34850	10876.909000977788	143
0	34851	10877.193694552273	142
0	34855	10878.122849466423	143
0	34856	10878.756605223246	142
0	34860	10880.26514831918	143
0	34861	10880.354175915063	142
0	34865	10880.523684020752	143
0	34866	10881.608638016373	142
0	34870	10883.530693217967	143
0	34871	10883.579228543729	142
0	34875	10883.745130990212	143
0	34876	10884.980463276856	142
0	34879	10886.448361659102	141
0	34883	10887.179004393772	142
0	34884	10887.95763092605	141
0	34888	10888.366729489688	142
0	34890	10889.2480411655	143
0	34892	10889.280656237809	144
0	34893	10889.453428660199	143
0	34897	10890.301308443457	144
0	34898	10890.686621500604	143
0	34901	10891.954879313387	142
0	34905	10892.112459270682	143
0	34907	10893.134463558442	144
0	34908	10893.435209750995	143
0	34911	10894.888873300567	142
0	34914	10896.729154525563	141
0	34919	10898.121786624804	140
0	34923	10898.439757429127	141
0	34924	10899.503377303906	140
0	34928	10899.79211871753	141
0	34929	10901.274296168104	140
0	34933	10902.36237904249	141
0	34935	10903.176645779118	142
0	34936	10903.184970474854	141
0	34939	10904.688142862409	140
0	34943	10904.824904110681	141
0	34944	10906.186500249669	140
0	34948	10906.608492178601	141
0	34949	10908.144780845806	140
0	34952	10910.017240843415	139
0	34956	10910.156903703629	140
0	34958	10910.415770645024	141
0	34959	10911.5022670236	140
0	34962	10912.741685390338	139
0	34965	10913.961040889151	138
0	34968	10915.455122927256	137
0	34972	10917.007660965694	138
0	34973	10917.2572078344	137
0	34977	10917.466679024808	138
0	34979	10918.112042924026	139
0	34981	10918.321606988526	140
0	34983	10918.542223612201	141
0	34984	10918.667074981943	140
0	34988	10919.253553381409	141
0	34989	10919.925736868806	140
0	34995	10921.118329300431	141
0	34997	10921.683983455212	142
0	34998	10921.914424711145	141
0	35001	10923.52163880454	140
0	35005	10924.49270429625	141
0	35007	10924.609404307957	142
0	35008	10925.089566111989	141
0	35011	10926.86915750248	140
0	35015	10927.88494749229	141
0	35017	10928.430602520976	142
0	35018	10928.602828414232	141
0	35021	10930.353784490802	140
0	35024	10932.054931321979	139
0	35028	10932.334589795418	140
0	35030	10932.474783661445	141
0	35031	10933.968410980195	140
0	35034	10935.460629075445	139
0	35037	10936.671155265398	138
0	35041	10936.814713573445	139
0	35044	10937.925789858266	138
0	35047	10939.253486166201	137
0	35051	10940.708612886058	138
0	35052	10941.237850641325	137
0	35055	10943.094134539232	136
0	35058	10944.637288368732	135
0	35062	10944.698765578118	136
0	35064	10944.955892553303	137
0	35067	10946.134398075804	136
0	35072	10948.075629590504	135
0	35075	10949.477727169037	134
0	35079	10949.608508321977	135
0	35080	10951.198775495641	134
0	35083	10953.017272727244	133
0	35089	10954.312266615036	134
0	35091	10954.639071638526	135
0	35092	10955.002587194607	134
0	35096	10955.347422850945	135
0	35097	10956.220243581809	134
0	35101	10957.618735300209	135
0	35102	10957.743163626134	134
0	35106	10959.337482407016	135
0	35107	10959.429067147575	134
0	35111	10959.442294493411	135
0	35112	10961.292897305876	134
0	35116	10961.638353362845	135
0	35117	10962.802618894033	134
0	35121	10963.789636876198	135
0	35122	10964.654311755165	134
0	35126	10964.788273489226	135
0	35128	10965.783062242185	136
0	35129	10966.207071840629	135
0	35133	10966.33942229482	136
0	35134	10967.589391510986	135
0	35138	10967.83203355491	136
0	35139	10969.301995574922	135
0	35143	10970.869635903506	136
0	35144	10971.144159514137	135
0	35148	10971.172150080704	136
0	35150	10971.670665851903	137
0	35152	10972.793977413996	138
0	35153	10972.888306156785	137
0	35157	10973.638598561954	138
0	35158	10974.451809036226	137
0	35161	10976.319024644845	136
0	35165	10976.61147961755	137
0	35167	10977.697444143129	138
0	35168	10977.751126956434	137
0	35172	10978.941460096276	138
0	35173	10979.654665799306	137
0	35177	10980.043676468063	138
0	35181	10980.979408592812	139
0	35182	10981.047418625334	138
0	35185	10982.420593323426	137
0	35189	10983.408260634722	138
0	35190	10984.061044696027	137
0	35195	10985.909971206503	136
0	35198	10987.222930880317	135
0	35202	10988.48453824472	136
0	35203	10988.921250999772	135
0	35207	10989.123452732838	136
0	35209	10989.565943184792	137
0	35210	10990.524923522637	136
0	35214	10990.838796003419	137
0	35215	10991.967976853491	136
0	35219	10992.725745395023	137
0	35221	10992.937522197685	138
0	35222	10993.538407623262	137
0	35225	10994.892933663034	136
0	35229	10995.421455170577	137
0	35230	10996.357376358711	136
0	35234	10996.422993201785	137
0	35236	10996.667328462064	138
0	35237	10997.608118132369	137
0	35240	10999.235575218552	136
0	35244	10999.763534854316	137
0	35246	11001.073117027161	138
0	35247	11001.214429788717	137
0	35251	11001.725919156533	138
0	35252	11003.077165826091	137
0	35256	11003.688911094792	138
0	35258	11004.268722314312	139
0	35259	11004.805388441735	138
0	35263	11005.937719756289	139
0	35264	11006.097571150453	138
0	35267	11007.713644631819	137
0	35270	11009.389473142156	136
0	35274	11009.548235577653	137
0	35275	11011.131545081788	136
0	35279	11011.786734588332	137
0	35280	11012.800420867705	136
0	35284	11013.254287284677	137
0	35285	11014.228827177786	136
0	35289	11014.522814271615	137
0	35291	11014.718208660121	138
0	35293	11015.326045648052	139
0	35294	11016.047813763895	138
0	35298	11017.232337154513	139
0	35299	11017.830910641567	138
0	35303	11019.19169666013	139
0	35304	11019.442503275776	138
0	35307	11021.022355854751	137
0	35311	11021.099501141605	138
0	35312	11022.967449294084	137
0	35316	11023.452772392305	138
0	35317	11024.233780038224	137
0	35322	11026.037150413783	136
0	35326	11026.233582379241	137
0	35327	11027.841067626195	136
0	35331	11028.236974542652	137
0	35333	11029.229459176972	138
0	35334	11029.566763010303	137
0	35337	11030.873881368394	136
0	35341	11031.796388135895	137
0	35343	11032.270371076552	138
0	35344	11032.436459289174	137
0	35348	11033.552776033385	138
0	35349	11034.341060705538	137
0	35353	11035.046342197227	138
0	35354	11035.888027362767	137
0	35358	11036.49950415801	138
0	35359	11037.28883136982	137
0	35362	11038.552457759584	136
0	35366	11039.641943497225	137
0	35367	11040.26002844801	136
0	35371	11040.769065785341	137
0	35372	11041.610100342015	136
0	35375	11042.834867025035	135
0	35379	11044.189489508181	136
0	35380	11044.251032714414	135
0	35384	11044.958977117723	136
0	35386	11045.687049776027	137
0	35387	11045.962871983329	136
0	35391	11046.715839183177	137
0	35393	11046.971986089122	138
0	35394	11047.679971751997	137
0	35397	11049.668416670019	136
0	35401	11049.765417261294	137
0	35403	11050.47862750509	138
0	35404	11051.445005879419	137
0	35408	11051.938807325922	138
0	35409	11052.728600036221	137
0	35412	11054.264592094401	136
0	35416	11054.414699708531	137
0	35418	11055.755664921738	138
0	35419	11055.792790552469	137
0	35422	11057.754906387122	136
0	35426	11057.881613341077	137
0	35428	11058.018305122068	138
0	35429	11059.623088985176	137
0	35433	11060.021111704051	138
0	35435	11060.099411564065	139
0	35437	11060.162682594447	140
0	35438	11061.192064300792	139
0	35441	11062.417052339444	138
0	35444	11063.77932938231	137
0	35448	11064.420454026776	138
0	35450	11064.565127217946	139
0	35452	11064.873554266535	140
0	35453	11065.236554438675	139
0	35457	11066.262999449034	140
0	35458	11066.559132181162	139
0	35462	11066.822786368458	140
0	35464	11066.923383122858	141
0	35466	11067.341631756011	142
0	35467	11068.168599514345	141
0	35471	11068.369848364274	142
0	35472	11069.87239715481	141
0	35476	11071.181278388395	142
0	35478	11071.246110448163	143
0	35479	11071.278846480565	142
0	35482	11072.861860546337	141
0	35486	11073.768961212485	142
0	35487	11074.795932528989	141
0	35491	11075.059098049548	142
0	35493	11075.598975010026	143
0	35494	11076.604570077227	142
0	35497	11078.332754360938	141
0	35501	11078.407115490177	142
0	35503	11078.635301152482	143
0	35504	11080.099731924066	142
0	35508	11080.1304738829	143
0	35510	11081.059507558209	144
0	35511	11081.559836081655	143
0	35514	11082.840686863342	142
0	35518	11083.189550119923	143
0	35520	11083.747953849737	144
0	35521	11084.718322447369	143
0	35525	11085.792937292758	144
0	35526	11085.986220504211	143
0	35529	11087.868519425446	142
0	35533	11088.543319558373	143
0	35534	11089.742178688625	142
0	35538	11089.938222601388	143
0	35539	11091.370026939975	142
0	35542	11092.613106481971	141
0	35546	11094.333160718534	142
0	35547	11094.462595082128	141
0	35550	11095.764469201358	140
0	35554	11096.730070604763	141
0	35555	11097.119617625939	140
0	35559	11097.627918898644	141
0	35560	11098.717138141262	140
0	35563	11100.262024306933	139
0	35567	11101.261784022336	140
0	35568	11101.934974131415	139
0	35573	11103.714944800603	138
0	35577	11104.714245786505	139
0	35578	11105.449534242282	138
0	35582	11106.819691631149	139
0	35583	11107.328078999797	138
0	35587	11108.150033250725	139
0	35588	11109.127752037028	138
0	35591	11110.517510636019	137
0	35595	11110.976467373444	138
0	35596	11112.309766377004	137
0	35600	11112.710916611952	138
0	35601	11114.173055775331	137
0	35605	11114.186298687826	138
0	35607	11114.190330852943	139
0	35608	11116.04113884853	138
0	35613	11117.256174930425	137
0	35617	11117.461808844217	138
0	35619	11118.311446192981	139
0	35620	11118.886269903982	138
0	35623	11120.260351718644	137
0	35627	11121.397914691801	138
0	35628	11121.560077863241	137
0	35634	11123.032569689882	138
0	35635	11123.058466486128	137
0	35639	11123.451200368525	138
0	35641	11123.466588102414	139
0	35642	11124.752598657886	138
0	35646	11125.066834033236	139
0	35647	11126.304915109704	138
0	35650	11128.189054170678	137
0	35653	11129.93372546384	136
0	35657	11130.044498958018	137
0	35658	11131.136869368943	136
0	35661	11132.589505731742	135
0	35665	11133.229463484708	136
0	35667	11133.435116129506	137
0	35669	11133.517558275236	138
0	35671	11134.143988928121	139
0	35672	11134.38970480306	138
0	35676	11135.430427633118	139
0	35677	11135.811443905029	138
0	35681	11136.240943501392	139
0	35682	11137.51106362814	138
0	35686	11139.343394196631	139
0	35687	11139.372736680004	138
0	35690	11141.078783529679	137
0	35694	11141.107510596221	138
0	35697	11143.000671080927	137
0	35703	11144.105372915967	138
0	35704	11144.445578357632	137
0	35708	11144.903491693736	138
0	35710	11145.493265912085	139
0	35712	11145.625380962979	140
0	35714	11146.087817838917	141
0	35715	11146.228931057135	140
0	35719	11146.61053594177	141
0	35720	11148.181524900588	140
0	35724	11148.425081429829	141
0	35725	11150.132810726258	140
0	35728	11151.867222610916	139
0	35732	11152.23712715779	140
0	35734	11152.242881992602	141
0	35735	11153.316026147324	140
0	35739	11153.328835449544	141
0	35741	11153.328870806207	142
0	35742	11154.742435668464	141
0	35746	11155.203694347185	142
0	35747	11156.613757987003	141
0	35751	11157.999371217587	142
0	35752	11158.267349018212	141
0	35756	11158.42000069654	142
0	35758	11158.475065072352	143
0	35759	11159.828034890871	142
0	35762	11161.621122931744	141
0	35765	11163.212298342454	140
0	35768	11164.525015224199	139
0	35772	11164.763054508046	140
0	35774	11164.766719830256	141
0	35776	11164.935345435685	142
0	35778	11165.403996384581	143
0	35779	11165.871370000447	142
0	35782	11167.377026493157	141
0	35785	11169.188380834887	140
0	35789	11169.532688874819	141
0	35790	11171.073847936148	140
0	35794	11172.469453923917	141
0	35796	11172.529079807882	142
0	35798	11172.597018525235	143
0	35799	11172.824278656447	142
0	35803	11173.145649918658	143
0	35805	11173.599117915647	144
0	35807	11174.262518461746	145
0	35808	11174.538935714269	144
0	35811	11176.18257563846	143
0	35815	11176.945832554916	144
0	35816	11178.143689947816	143
0	35819	11180.060797585974	142
0	35822	11181.682580739314	141
0	35826	11182.332300723656	142
0	35827	11183.124428218844	141
0	35830	11184.660699275191	140
0	35834	11184.901958132074	141
0	35836	11186.280044045929	142
0	35837	11186.602940393481	141
0	35841	11186.942033621474	142
0	35843	11188.282435513326	143
0	35844	11188.373599883783	142
0	35848	11189.57359041195	143
0	35849	11189.864757704976	142
0	35852	11191.131347446199	141
0	35855	11192.399191935416	140
0	35859	11192.556109898421	141
0	35861	11193.267766163131	142
0	35863	11193.342397525597	143
0	35864	11193.790693618785	142
0	35867	11195.215179732125	141
0	35871	11195.236091051427	142
0	35872	11196.735702552516	141
0	35876	11197.467423900976	142
0	35877	11198.090865813624	141
0	35880	11199.382985987943	140
0	35883	11200.673071171586	139
0	35887	11200.931931492359	140
0	35889	11201.316514227721	141
0	35891	11201.82254371538	142
0	35892	11202.011905797627	141
0	35896	11202.858100482585	142
0	35898	11202.982300405212	143
0	35900	11203.306779896941	144
0	35901	11203.761097279433	143
0	35905	11203.951504687492	144
0	35906	11205.124144198429	143
0	35909	11206.62821910834	142
0	35913	11207.128170529623	143
0	35914	11208.364846330379	142
0	35917	11209.599089735431	141
0	35921	11210.554716250538	142
0	35923	11211.184051023386	143
0	35924	11211.48089758238	142
0	35927	11213.331812110228	141
0	35931	11213.926391767272	142
0	35933	11213.976465071786	143
0	35935	11214.017429263163	144
0	35936	11215.203208949474	143
0	35939	11217.021296166686	142
0	35943	11217.701577700619	143
0	35944	11218.522094543522	142
0	35948	11218.647071072307	143
0	35949	11220.521096815971	142
0	35952	11222.247689562162	141
0	35956	11223.985651298501	142
0	35957	11224.150454821309	141
0	35961	11224.602397566495	142
0	35963	11225.08271861215	143
0	35965	11225.333286210723	144
0	35966	11225.512260988599	143
0	35970	11226.32329515396	144
0	35973	11226.826738445891	143
0	35977	11227.582334694161	144
0	35978	11228.058417100703	143
0	35983	11229.454787985852	142
0	35987	11229.576084972777	143
0	35989	11229.814103776175	144
0	35990	11231.122784194035	143
0	35994	11231.835002366281	144
0	35995	11232.480925810581	143
0	35998	11234.411261240451	142
0	36002	11234.732105835462	143
0	36007	11236.048575965187	142
0	36010	11237.390889690316	141
0	36014	11237.667479193479	142
0	36016	11238.139850564364	143
0	36017	11239.074962586968	142
0	36021	11239.70738094687	143
0	36022	11240.400618827215	142
0	36026	11241.596761958077	143
0	36028	11241.6366185504	144
0	36029	11241.884963608778	143
0	36033	11242.287948096883	144
0	36034	11243.286678685493	143
0	36038	11244.310899381194	144
0	36039	11244.799486615195	143
0	36043	11245.232680000341	144
0	36044	11246.740825697466	143
0	36048	11248.238470587191	144
0	36049	11248.325802903122	143
0	36053	11248.426317996819	144
0	36055	11249.386971017156	145
0	36056	11250.181936582795	144
0	36059	11251.51732600244	143
0	36062	11252.888149275689	142
0	36065	11254.474042055255	141
0	36069	11254.968374031322	142
0	36070	11256.036287590174	141
0	36074	11256.75861176406	142
0	36075	11257.986357720068	141
0	36079	11258.553749536312	142
0	36081	11258.556124375487	143
0	36082	11259.521042545757	142
0	36086	11260.082273446112	143
0	36087	11261.093563916406	142
0	36090	11262.313556207402	141
0	36094	11263.124556738469	142
0	36095	11264.310585620312	141
0	36099	11264.711194071997	142
0	36101	11265.386291758736	143
0	36102	11266.169088275043	142
0	36106	11267.205561591842	143
0	36107	11267.660425549244	142
0	36110	11269.243179979419	141
0	36114	11270.122098245545	142
0	36115	11271.078069379238	141
0	36118	11272.559979260025	140
0	36122	11272.978825774582	141
0	36123	11274.490846266841	140
0	36126	11276.124493389261	139
0	36130	11277.856396003277	140
0	36131	11277.950012717453	139
0	36135	11278.172387728903	140
0	36137	11278.4814622666	141
0	36138	11279.490131867361	140
0	36141	11280.895559731741	139
0	36145	11280.94827302946	140
0	36147	11281.796988312857	141
0	36148	11282.22388632061	140
0	36151	11283.903751530927	139
0	36155	11284.636641259839	140
0	36156	11285.621627115514	139
0	36160	11285.753785050942	140
0	36161	11287.497458072249	139
0	36165	11287.820699753651	140
0	36167	11288.413621990247	141
0	36169	11288.73398222249	142
0	36170	11289.050516216513	141
0	36174	11289.282203366813	142
0	36176	11290.141159380245	143
0	36177	11290.455600228217	142
0	36181	11290.647986285569	143
0	36183	11290.717240852755	144
0	36186	11291.83412072422	143
0	36190	11292.733799182889	144
0	36191	11293.356099420842	143
0	36194	11294.790998228137	142
0	36198	11295.289555378541	143
0	36200	11295.641362722517	144
0	36201	11296.627310654764	143
0	36204	11298.329674133156	142
0	36207	11299.645627168436	141
0	36211	11299.798766965003	142
0	36213	11300.844570262824	143
0	36214	11301.590025545713	142
0	36217	11302.931666851473	141
0	36221	11303.228683619427	142
0	36222	11304.836725391504	141
0	36225	11306.801568240543	140
0	36229	11306.879220366716	141
0	36230	11308.202642508281	140
0	36234	11308.677211627222	141
0	36235	11309.443714855855	140
0	36239	11310.315125646409	141
0	36240	11311.438676493672	140
0	36246	11312.450090509108	141
0	36247	11312.667028987837	140
0	36251	11313.07460914403	141
0	36253	11313.181826270152	142
0	36255	11313.60792116559	143
0	36256	11314.239368473981	142
0	36261	11316.143648594302	141
0	36264	11318.064545365852	140
0	36268	11318.852956825111	141
0	36269	11319.709691187051	140
0	36272	11321.349488030244	139
0	36276	11322.668708485992	140
0	36277	11322.735650602598	139
0	36280	11324.259393508043	138
0	36286	11325.631615712824	139
0	36288	11325.679800828147	140
0	36291	11325.709379000086	139
0	36295	11326.047868970539	140
0	36297	11326.937679485339	141
0	36299	11327.093636067858	142
0	36300	11327.177349595222	141
0	36303	11328.848074508327	140
0	36307	11329.890035659496	141
0	36309	11330.016034876104	142
0	36310	11330.653964551779	141
0	36313	11332.486255444082	140
0	36317	11333.123568990181	141
0	36319	11333.864073306261	142
0	36320	11333.934694403092	141
0	36324	11334.689524672401	142
0	36326	11335.382797582128	143
0	36327	11335.674874383452	142
0	36331	11336.622938202208	143
0	36332	11337.034892488326	142
0	36336	11338.49760568431	143
0	36337	11338.596306586879	142
0	36340	11340.17047911683	141
0	36344	11340.44098412409	142
0	36346	11340.461992892514	143
0	36347	11341.764789584148	142
0	36351	11342.185359856229	143
0	36352	11343.505375121962	142
0	36356	11344.64418447707	143
0	36357	11344.809456276204	142
0	36360	11346.057992778401	141
0	36364	11346.32586117207	142
0	36366	11346.473110185469	143
0	36368	11346.595945295412	144
0	36369	11347.814566109757	143
0	36373	11348.356116600166	144
0	36374	11349.510425299461	143
0	36378	11349.917602916248	144
0	36379	11351.383569505307	143
0	36383	11352.253760261534	144
0	36384	11353.34314749116	143
0	36388	11353.453329361164	144
0	36389	11354.736907381061	143
0	36392	11356.292395962271	142
0	36396	11357.379789610577	143
0	36397	11358.250389777738	142
0	36400	11359.933091975431	141
0	36404	11360.33636625429	142
0	36406	11360.341189402836	143
0	36408	11360.699094206279	144
0	36409	11361.720442425515	143
0	36412	11363.437480426635	142
0	36416	11363.790135694491	143
0	36417	11365.136353266667	142
0	36420	11366.421778386514	141
0	36424	11366.505333247458	142
0	36426	11366.913723471124	143
0	36428	11367.618796835765	144
0	36429	11367.773205314446	143
0	36432	11369.148245775942	142
0	36436	11370.075339885639	143
0	36438	11370.549477109201	144
0	36440	11370.727161919232	145
0	36443	11371.029933540579	144
0	36446	11372.347305809762	143
0	36450	11373.003573758316	144
0	36451	11373.69009127846	143
0	36455	11374.558108129093	144
0	36457	11375.143661763741	145
0	36458	11375.222481729146	144
0	36461	11376.851916191224	143
0	36465	11378.411820629175	144
0	36466	11378.850989120323	143
0	36470	11379.60670357297	144
0	36471	11380.70045314921	143
0	36475	11381.109137881674	144
0	36477	11381.737641629167	145
0	36479	11382.077810370653	146
0	36480	11382.277015871982	145
0	36484	11382.557414852758	146
0	36486	11382.598942194705	147
0	36487	11383.616680693868	146
0	36491	11383.882855017331	147
0	36493	11385.021492931855	148
0	36494	11385.195344654899	147
0	36498	11386.445623977935	148
0	36499	11387.077228833791	147
0	36502	11388.862234649491	146
0	36506	11389.140942890759	147
0	36507	11390.790199213531	146
0	36511	11390.979504863414	147
0	36512	11392.667635130938	146
0	36516	11393.435587221914	147
0	36517	11394.104451106358	146
0	36522	11395.658351181689	145
0	36525	11397.2412830385	144
0	36529	11397.802487314901	145
0	36530	11399.23738074066	144
0	36533	11400.470140535439	143
0	36536	11401.998141795824	142
0	36540	11402.417896391123	143
0	36542	11403.151785658471	144
0	36543	11403.606169695089	143
0	36547	11404.163757872869	144
0	36548	11404.986070400158	143
0	36551	11406.599866128208	142
0	36555	11406.73221488557	143
0	36556	11408.48463659087	142
0	36560	11408.836693960039	143
0	36562	11408.843018867291	144
0	36564	11408.866674469005	145
0	36566	11409.120910790363	146
0	36567	11410.259292701127	145
0	36571	11410.538867446375	146
0	36572	11411.652235027643	145
0	36575	11413.368804889226	144
0	36578	11414.872868255766	143
0	36582	11416.065870595458	144
0	36583	11416.866069199012	143
0	36587	11417.141628360429	144
0	36588	11418.607975318895	143
0	36591	11420.520454580204	142
0	36594	11421.737949280494	141
0	36598	11421.868854783919	142
0	36599	11423.194668994525	141
0	36602	11424.83390509268	140
0	36606	11425.794001830741	141
0	36607	11426.699328180083	140
0	36611	11427.406431148418	141
0	36612	11427.979852167756	140
0	36617	11429.596154234052	139
0	36621	11430.316194065315	140
0	36623	11430.372436341156	141
0	36625	11430.774684725729	142
0	36626	11431.14635405732	141
0	36629	11433.040937092208	140
0	36632	11434.369009881519	139
0	36636	11436.033086936618	140
0	36637	11436.07565041674	139
0	36640	11437.543756813423	138
0	36644	11437.901778020064	139
0	36645	11439.431834868209	138
0	36649	11439.79107698413	139
0	36650	11440.828235327692	138
0	36654	11441.006586629877	139
0	36655	11442.13243323365	138
0	36659	11443.017851719288	139
0	36661	11443.274305818295	140
0	36662	11443.360659795308	139
0	36666	11443.895032792079	140
0	36668	11444.735733762061	141
0	36669	11444.741118466349	140
0	36673	11445.844014097978	141
0	36674	11446.035246935354	140
0	36677	11447.328086284229	139
0	36681	11447.881457047399	140
0	36682	11448.611615408824	139
0	36686	11448.910787847397	140
0	36688	11449.342723085941	141
0	36689	11450.256849224919	140
0	36693	11450.641129434837	141
0	36695	11450.688454812452	142
0	36696	11451.63952430492	141
0	36700	11451.888853842627	142
0	36701	11453.050595837885	141
0	36705	11453.548860945218	142
0	36707	11454.363990544043	143
0	36708	11454.981759949082	142
0	36712	11456.247168103819	143
0	36713	11456.676944180259	142
0	36716	11458.116598550284	141
0	36720	11458.404782649935	142
0	36722	11458.51116561785	143
0	36723	11460.043552085997	142
0	36727	11460.961489201562	143
0	36728	11461.997894136102	142
0	36732	11462.747825178577	143
0	36733	11463.897684989736	142
0	36736	11465.257059380837	141
0	36740	11465.675918490084	142
0	36742	11465.854824767787	143
0	36743	11467.125339663081	142
0	36747	11468.285073549991	143
0	36748	11469.00244120197	142
0	36752	11469.690351488413	143
0	36753	11470.611097098753	142
0	36757	11470.657564815321	143
0	36759	11472.250359675647	144
0	36760	11472.451678501867	143
0	36763	11474.001056220062	142
0	36767	11475.373595708032	143
0	36768	11475.906154963054	142
0	36772	11475.931571627917	143
0	36773	11477.282091476262	142
0	36777	11478.545459856139	143
0	36778	11479.153567924031	142
0	36781	11480.962485524693	141
0	36785	11480.98803098346	142
0	36786	11482.347020444886	141
0	36789	11483.61984587522	140
0	36792	11485.009217768775	139
0	36796	11485.410056211115	140
0	36797	11486.724577746221	139
0	36800	11488.378419256636	138
0	36804	11488.474352375498	139
0	36805	11490.217826306314	138
0	36808	11491.551397105359	137
0	36812	11492.500827794512	138
0	36814	11492.702670724787	139
0	36815	11493.323964597524	138
0	36819	11493.429884091633	139
0	36821	11493.755516880875	140
0	36822	11494.715465440095	139
0	36825	11496.049555908382	138
0	36829	11496.728300307515	139
0	36830	11498.03184016408	138
0	36834	11498.632552286051	139
0	36835	11499.703601839073	138
0	36841	11499.944136739868	139
0	36843	11500.362737590233	140
0	36845	11500.541680319158	141
0	36846	11501.249497501232	140
0	36850	11502.854157129671	141
0	36851	11502.962594040536	140
0	36854	11504.577094228805	139
0	36857	11505.792542386294	138
0	36860	11507.333392743633	137
0	36864	11507.817822254966	138
0	36866	11508.655722859184	139
0	36868	11508.866983040192	140
0	36870	11509.069155876281	141
0	36871	11509.148890013114	140
0	36874	11510.935472495348	139
0	36878	11511.139269796147	140
0	36880	11511.41655389012	141
0	36881	11512.392127753661	140
0	36884	11514.055409808137	139
0	36888	11514.339877866268	140
0	36889	11515.261880721018	139
0	36893	11515.561303372303	140
0	36895	11516.369690795044	141
0	36896	11516.85079879766	140
0	36900	11517.349674113573	141
0	36902	11518.016770681663	142
0	36903	11518.730461697519	141
0	36907	11519.66726943416	142
0	36908	11519.989029785671	141
0	36912	11521.287162178304	142
0	36913	11521.922840876744	141
0	36916	11523.37234558338	140
0	36920	11524.350299977828	141
0	36921	11524.811457918451	140
0	36926	11526.206081936375	139
0	36930	11526.766733592657	140
0	36932	11526.956900155764	141
0	36933	11527.877163536527	140
0	36937	11528.910164612901	141
0	36938	11529.33439506428	140
0	36942	11529.610456364804	141
0	36944	11530.295101857127	142
0	36945	11530.750771363877	141
0	36949	11531.158783475261	142
0	36951	11531.269576546179	143
0	36953	11531.581342204832	144
0	36954	11532.061216720991	143
0	36958	11532.689515333434	144
0	36959	11533.799679451302	143
0	36963	11535.223266521662	144
0	36964	11535.265268200316	143
0	36967	11537.051585312613	142
0	36973	11537.480747476048	143
0	36974	11538.261566149496	142
0	36978	11538.442086300384	143
0	36979	11539.797661964089	142
0	36982	11541.155601164192	141
0	36986	11541.64036840569	142
0	36987	11542.454240911506	141
0	36991	11543.779094908599	142
0	36992	11544.246928686701	141
0	36996	11544.911920783748	142
0	36997	11545.471088283189	141
0	37001	11546.303836874803	142
0	37002	11547.015280071698	141
0	37006	11547.017327053102	142
0	37007	11548.356568136491	141
0	37010	11549.761603890412	140
0	37014	11550.065642459018	141
0	37016	11550.162307322426	142
0	37017	11550.991702018358	141
0	37020	11552.866486781888	140
0	37024	11554.195426567284	141
0	37026	11554.20631794449	142
0	37027	11554.820814207062	141
0	37031	11555.872865234484	142
0	37032	11556.769297867693	141
0	37035	11558.27080479046	140
0	37039	11558.436258934586	141
0	37040	11559.870545584202	140
0	37043	11561.135587509215	139
0	37046	11562.594911672227	138
0	37049	11564.527432712406	137
0	37053	11564.938510028289	138
0	37054	11566.410194610484	137
0	37059	11568.278171111882	136
0	37062	11569.647173099645	135
0	37066	11569.711021771806	136
0	37068	11570.219773336946	137
0	37069	11571.527542479761	136
0	37073	11572.834750797216	137
0	37074	11573.435272030026	136
0	37077	11575.273985224828	135
0	37081	11575.28314496123	136
0	37082	11576.495754172891	135
0	37086	11576.8281603703	136
0	37088	11576.956374341582	137
0	37089	11577.984822171978	136
0	37093	11579.115322516084	137
0	37094	11579.335273422352	136
0	37097	11580.779116389207	135
0	37101	11580.945452153613	136
0	37102	11581.988112089835	135
0	37105	11583.27690382158	134
0	37109	11583.325827554228	135
0	37110	11584.747526286967	134
0	37113	11586.70663400428	133
0	37117	11586.818188311013	134
0	37118	11588.289097937621	133
0	37122	11589.211202290889	134
0	37124	11589.308172420735	135
0	37126	11589.336316303744	136
0	37127	11590.204517585464	135
0	37130	11591.570265428029	134
0	37134	11592.682861159743	135
0	37135	11593.428189704433	134
0	37139	11593.962135272453	135
0	37140	11594.930752923764	134
0	37144	11595.552218584796	135
0	37146	11596.193025452726	136
0	37147	11596.287477663025	135
0	37150	11597.88608806809	134
0	37153	11599.572513964079	133
0	37157	11600.035465787747	134
0	37158	11601.393290169589	133
0	37161	11603.210111569665	132
0	37164	11604.992743048124	131
0	37167	11606.521799993008	130
0	37171	11606.802734657534	131
0	37173	11607.495550201188	132
0	37174	11607.818447316117	131
0	37178	11608.164254673124	132
0	37180	11608.657438164994	133
0	37181	11609.706167282961	132
0	37185	11611.017584191024	133
0	37186	11611.032353438675	132
0	37190	11611.112891894666	133
0	37192	11611.750537782084	134
0	37194	11612.078657817177	135
0	37195	11612.718311484396	134
0	37199	11614.283814948223	135
0	37200	11614.614761006698	134
0	37204	11615.522312466865	135
0	37205	11615.84548318354	134
0	37208	11617.402322409726	133
0	37211	11619.033401293173	132
0	37214	11620.424946786888	131
0	37218	11620.858524147687	132
0	37220	11621.200599037803	133
0	37224	11621.855308320977	134
0	37226	11621.902858954401	135
0	37228	11622.034269184343	136
0	37229	11622.321701334842	135
0	37233	11623.673860974949	136
0	37235	11624.144432322277	137
0	37236	11624.20094466196	136
0	37240	11626.045099918476	137
0	37241	11626.182131890446	136
0	37245	11626.435498036725	137
0	37247	11626.53717201415	138
0	37248	11627.539074301213	137
0	37252	11627.837547903753	138
0	37253	11629.501446130179	137
0	37256	11630.780822798848	136
0	37260	11631.150122137063	137
0	37261	11632.588469911791	136
0	37265	11633.039236272068	137
0	37266	11633.964003591477	136
0	37269	11635.860446425765	135
0	37273	11636.116459732699	136
0	37274	11637.189455916039	135
0	37277	11638.868770730547	134
0	37281	11640.568941629004	135
0	37282	11640.651010412029	134
0	37285	11641.908830037578	133
0	37288	11643.223846895113	132
0	37292	11643.64641724057	133
0	37293	11644.776963586784	132
0	37296	11646.062134310654	131
0	37300	11646.824451481056	132
0	37302	11647.094647483926	133
0	37304	11647.292238079513	134
0	37305	11647.625791201978	133
0	37309	11648.496334387197	134
0	37311	11649.214261698439	135
0	37312	11649.510758792846	134
0	37316	11649.635599278083	135
0	37317	11651.031180998175	134
0	37321	11651.116761154206	135
0	37325	11652.386674556284	136
0	37327	11652.481222562835	137
0	37328	11652.863521485454	136
0	37332	11653.389780154025	137
0	37334	11653.773686856057	138
0	37335	11654.135192834823	137
0	37339	11654.804521506742	138
0	37340	11655.528271944872	137
0	37344	11656.151097775138	138
0	37347	11657.240653438358	137
0	37350	11658.475188277899	136
0	37353	11659.931098406999	135
0	37357	11659.978717277011	136
0	37359	11661.114868093721	137
0	37361	11661.40742374779	138
0	37362	11661.731892206943	137
0	37366	11662.714959455999	138
0	37367	11662.944048228724	137
0	37371	11664.091036410449	138
0	37372	11664.824853972582	137
0	37375	11666.341671987487	136
0	37379	11667.790283615898	137
0	37380	11668.056011459282	136
0	37384	11669.572246442615	137
0	37385	11669.867762916586	136
0	37389	11671.199768197923	137
0	37390	11671.765579986809	136
0	37395	11673.128421068801	135
0	37399	11673.150656218546	136
0	37401	11673.734792387753	137
0	37403	11673.822227492525	138
0	37405	11674.475606604292	139
0	37406	11674.536641225083	138
0	37410	11674.628741496019	139
0	37412	11675.286252188454	140
0	37413	11675.855798546275	139
0	37416	11677.576207526265	138
0	37420	11678.190045113648	139
0	37422	11678.369596783113	140
0	37423	11679.501923758401	139
0	37427	11680.497335393629	140
0	37428	11680.909732278115	139
0	37432	11681.805820942536	140
0	37434	11682.046433524747	141
0	37435	11682.709386957488	140
0	37439	11684.256712176448	141
0	37440	11684.630928014643	140
0	37444	11685.52799856439	141
0	37445	11686.040866078302	140
0	37449	11686.140175972885	141
0	37450	11687.62124179402	140
0	37453	11689.33698875425	139
0	37456	11690.667588177189	138
0	37459	11692.505056148074	137
0	37463	11693.18500223353	138
0	37464	11694.054584172978	137
0	37468	11695.332353915345	138
0	37469	11695.474885582416	137
0	37473	11696.573029900654	138
0	37475	11696.785262252892	139
0	37476	11696.789010204984	138
0	37480	11696.969407053944	139
0	37482	11697.386492236306	140
0	37484	11697.770069883629	141
0	37485	11698.593257732926	140
0	37488	11700.254820963791	139
0	37492	11700.339864490881	140
0	37494	11701.567046324823	141
0	37495	11701.689477637275	140
0	37498	11703.232447145185	139
0	37501	11705.06843248201	138
0	37505	11705.554543442643	139
0	37506	11706.596557527831	138
0	37510	11706.628020801047	139
0	37512	11706.662098497782	140
0	37514	11707.464861014423	141
0	37515	11707.839482444761	140
0	37518	11709.094503933986	139
0	37522	11709.800877666356	140
0	37523	11710.87740747412	139
0	37526	11712.830805857156	138
0	37530	11713.594174510278	139
0	37531	11714.619079284233	138
0	37534	11715.84607138471	137
0	37538	11716.208365747001	138
0	37539	11717.424642239188	137
0	37543	11718.623563925222	138
0	37544	11718.952481245299	137
0	37548	11719.582359482153	138
0	37549	11720.542886374195	137
0	37553	11720.732648799011	138
0	37554	11722.236325139415	137
0	37557	11724.159147522089	136
0	37561	11725.006767857829	137
0	37562	11725.500774315049	136
0	37566	11726.579642229136	137
0	37567	11727.110473890838	136
0	37571	11727.525468610869	137
0	37573	11729.002022837353	138
0	37574	11729.069776296851	137
0	37578	11729.436082528086	138
0	37579	11730.861560979348	137
0	37582	11732.350553922963	136
0	37585	11733.627717828055	135
0	37588	11734.951455615883	134
0	37591	11736.843923266282	133
0	37595	11737.645444800992	134
0	37597	11738.102308327927	135
0	37599	11738.346298962274	136
0	37600	11738.428555193593	135
0	37604	11739.642017658153	136
0	37607	11740.29514730112	135
0	37610	11742.196373500538	134
0	37614	11742.591342171014	135
0	37616	11742.836059113674	136
0	37617	11743.986735068497	135
0	37620	11745.89891091143	134
0	37624	11747.479310211943	135
0	37626	11747.530353913445	136
0	37627	11747.594503466461	135
0	37631	11747.826272255427	136
0	37633	11748.451878655877	137
0	37634	11749.28807253563	136
0	37638	11749.868752938094	137
0	37640	11750.506513547246	138
0	37641	11750.991045877944	137
0	37645	11751.145789883735	138
0	37646	11752.858030987765	137
0	37650	11753.908338285874	138
0	37652	11754.486867890187	139
0	37653	11754.546198119271	138
0	37657	11755.392765656427	139
0	37658	11756.042901598524	138
0	37661	11757.637583585318	137
0	37664	11759.049351585146	136
0	37668	11759.095203963469	137
0	37669	11760.53352004965	136
0	37673	11761.945040605347	137
0	37674	11762.496272758629	136
0	37677	11764.143512632187	135
0	37681	11765.47257582715	136
0	37682	11766.006828180376	135
0	37686	11766.10773897846	136
0	37688	11766.200252611924	137
0	37689	11767.914665248479	136
0	37692	11769.737066111016	135
0	37696	11770.124463022536	136
0	37698	11770.639320301579	137
0	37699	11770.970226485516	136
0	37703	11771.075937789542	137
0	37704	11772.816729025031	136
0	37707	11774.073474878865	135
0	37711	11774.629991792531	136
0	37712	11775.722780841636	135
0	37715	11777.239103994752	134
0	37719	11778.105002408424	135
0	37720	11778.443469037163	134
0	37723	11780.318333724002	133
0	37728	11782.133160353685	132
0	37732	11782.153873689014	133
0	37734	11782.549573522893	134
0	37736	11782.964674422086	135
0	37738	11783.226953729464	136
0	37739	11783.66337743816	135
0	37743	11784.195417293874	136
0	37744	11784.887740659761	135
0	37748	11785.131662654701	136
0	37749	11786.687073854218	135
0	37752	11788.366812345433	134
0	37756	11789.535052623302	135
0	37757	11790.161470459635	134
0	37760	11791.732273325371	133
0	37764	11793.142132363838	134
0	37766	11793.152350774679	135
0	37767	11793.398878832022	134
0	37771	11793.407168471577	135
0	37773	11795.233434653143	136
0	37774	11795.283128383803	135
0	37778	11795.304503886139	136
0	37780	11795.628216046689	137
0	37782	11795.851413493353	138
0	37783	11796.7792806488	137
0	37787	11797.508201721288	138
0	37788	11798.734674048471	137
0	37792	11799.089012960261	138
0	37793	11800.244935184764	137
0	37797	11800.541620055887	138
0	37799	11801.333335950645	139
0	37800	11801.958305096301	138
0	37804	11802.083240311174	139
0	37806	11803.308141025664	140
0	37807	11803.660020861263	139
0	37811	11805.333921954843	140
0	37812	11805.505804982829	139
0	37815	11807.238925264078	138
0	37818	11809.009819932143	137
0	37822	11809.255998871157	138
0	37824	11809.739733276488	139
0	37825	11810.664698514017	138
0	37829	11811.443486838435	139
0	37831	11811.723788675201	140
0	37832	11811.968118651072	139
0	37836	11813.167329662066	140
0	37837	11813.5340833914	139
0	37840	11815.073202541703	138
0	37844	11815.321891038584	139
0	37846	11816.0010167508	140
0	37847	11816.604524549516	139
0	37851	11817.041470452362	140
0	37852	11817.847724353382	139
0	37856	11818.339956852802	140
0	37857	11819.21099042301	139
0	37861	11819.251098105396	140
0	37862	11820.481856900872	139
0	37867	11822.457012013019	138
0	37871	11823.452029181284	139
0	37872	11823.825657215946	138
0	37875	11825.645149857596	137
0	37879	11826.650037378058	138
0	37881	11827.008876473249	139
0	37882	11827.556087496549	138
0	37886	11827.805366738693	139
0	37887	11828.886659502469	138
0	37891	11830.153769970919	139
0	37892	11830.495363652751	138
0	37895	11832.171084823318	137
0	37898	11833.824849812731	136
0	37902	11835.367707099463	137
0	37903	11835.495277023733	136
0	37907	11835.882226059314	137
0	37909	11836.911023659441	138
0	37910	11836.924978614085	137
0	37914	11837.186831989655	138
0	37916	11837.39414256683	139
0	37917	11838.742651097335	138
0	37920	11840.425210760206	137
0	37924	11840.609241130012	138
0	37926	11840.716174431356	139
0	37927	11841.864133523263	138
0	37931	11841.99574178332	139
0	37932	11843.54200238739	138
0	37936	11844.163160788533	139
0	37937	11845.159191679813	138
0	37941	11845.346728577257	139
0	37942	11846.599615550458	138
0	37946	11848.229995498153	139
0	37948	11848.289733747574	140
0	37949	11848.569201485298	139
0	37952	11849.98680341155	138
0	37956	11851.064747150313	139
0	37958	11851.240617806827	140
0	37959	11851.588683746985	139
0	37963	11852.450134004924	140
0	37964	11853.060500825054	139
0	37968	11854.488976262591	140
0	37969	11854.735559198677	139
0	37972	11856.476856620095	138
0	37976	11856.905334774122	139
0	37977	11858.06858896841	138
0	37980	11859.639220677174	137
0	37984	11859.85147424438	138
0	37986	11859.865787494697	139
0	37987	11860.860374020457	138
0	37991	11861.657082047507	139
0	37993	11862.080984924066	140
0	37994	11862.271310668297	139
0	37998	11862.627730691498	140
0	37999	11864.215138149679	139
0	38002	11866.160823701367	138
0	38006	11866.614564201284	139
0	38007	11867.651754485302	138
0	38011	11868.361291962989	139
0	38012	11869.119040925101	138
0	38016	11870.399047791981	139
0	38018	11870.483218636614	140
0	38019	11871.076068987184	139
0	38023	11871.190587377939	140
0	38025	11872.215649070968	141
0	38026	11872.298579973959	140
0	38029	11874.11474020467	139
0	38032	11876.04802277577	138
0	38036	11877.296258502053	139
0	38037	11877.496112291188	138
0	38041	11878.859303737843	139
0	38042	11878.885830334992	138
0	38046	11878.941708525471	139
0	38048	11878.983010517696	140
0	38050	11879.926171832546	141
0	38051	11880.131796562531	140
0	38055	11880.364949299074	141
0	38056	11881.513044347287	140
0	38060	11881.909320534142	141
0	38061	11882.961099947662	140
0	38065	11883.261554723972	141
0	38067	11883.323505233016	142
0	38069	11883.397235969434	143
0	38071	11883.889132873447	144
0	38073	11884.371810708767	145
0	38074	11884.483681132876	144
0	38078	11885.384947881998	145
0	38079	11886.45024819211	144
0	38082	11887.895241416291	143
0	38085	11889.582209344254	142
0	38089	11890.609233392405	143
0	38090	11891.02778400001	142
0	38093	11892.261755907581	141
0	38097	11892.530024569431	142
0	38098	11893.722547383652	141
0	38102	11893.990818920509	142
0	38103	11895.580185487726	141
0	38107	11895.689506999363	142
0	38108	11897.091433616587	141
0	38111	11898.627933014789	140
0	38117	11899.630943606951	141
0	38118	11900.1465592599	140
0	38122	11900.448968643064	141
0	38124	11900.597228781116	142
0	38125	11901.626667397515	141
0	38129	11901.916952421088	142
0	38130	11902.97333100126	141
0	38134	11904.406308608194	142
0	38135	11904.760806747199	141
0	38139	11906.09440283801	142
0	38140	11906.5412647421	141
0	38143	11908.142971832351	140
0	38147	11908.624526516222	141
0	38148	11909.850212127016	140
0	38151	11911.122864752495	139
0	38155	11911.634162205461	140
0	38157	11912.204841015408	141
0	38158	11912.919137284764	140
0	38161	11914.635232832701	139
0	38165	11915.654596687961	140
0	38166	11916.28894471866	139
0	38170	11916.681333898312	140
0	38172	11917.032023607257	141
0	38174	11917.442918465514	142
0	38175	11917.640837847115	141
0	38178	11919.23379726489	140
0	38182	11919.599184599642	141
0	38184	11919.991549574529	142
0	38185	11920.503689397545	141
0	38188	11921.769301319913	140
0	38192	11923.025340480322	141
0	38193	11923.105314515577	140
0	38197	11923.441783993727	141
0	38199	11923.599492619808	142
0	38200	11924.374117670254	141
0	38204	11924.90995875187	142
0	38206	11926.089885884857	143
0	38207	11926.225338402809	142
0	38211	11926.497014809614	143
0	38212	11927.769960543373	142
0	38216	11928.973618519495	143
0	38217	11929.199444174067	142
0	38221	11930.194864356427	143
0	38222	11930.686314213135	142
0	38226	11930.805434029331	143
0	38228	11931.310323570393	144
0	38229	11932.326588971027	143
0	38233	11932.734316078714	144
0	38234	11933.560159195074	143
0	38238	11933.788834117934	144
0	38240	11934.915417229023	145
0	38241	11935.193197486968	144
0	38245	11936.012415030704	145
0	38246	11936.751935052545	144
0	38250	11936.891534570898	145
0	38252	11937.48682237309	146
0	38253	11938.557931005628	145
0	38257	11938.867613204446	146
0	38259	11940.413404595029	147
0	38260	11940.502843737089	146
0	38264	11940.897319559352	147
0	38266	11941.893191190407	148
0	38267	11942.122275214874	147
0	38271	11942.944761182767	148
0	38272	11944.048693010815	147
0	38276	11945.423559986608	148
0	38277	11945.576861333706	147
0	38281	11945.746293945723	148
0	38282	11946.893377580166	147
0	38286	11947.787331834452	148
0	38287	11948.603692167856	147
0	38291	11949.036427573293	148
0	38293	11949.216757997847	149
0	38295	11949.344073380753	150
0	38297	11949.371957619943	151
0	38298	11950.053696012169	150
0	38302	11950.569909115834	151
0	38303	11951.492152388625	150
0	38307	11951.66274291077	151
0	38308	11952.716412641153	150
0	38312	11953.637088188341	151
0	38313	11954.477413749554	150
0	38317	11955.836071819043	151
0	38318	11955.987386877135	150
0	38322	11956.130969346734	151
0	38323	11957.899660466657	150
0	38327	11958.699283783665	151
0	38328	11959.558089645998	150
0	38332	11960.019393544418	151
0	38333	11961.327067678281	150
0	38337	11962.101470430136	151
0	38338	11962.90495206532	150
0	38342	11964.029173743624	151
0	38343	11964.273940767207	150
0	38348	11965.664592997961	149
0	38351	11967.508250068918	148
0	38355	11967.622753764113	149
0	38357	11968.882531871422	150
0	38358	11968.974615119815	149
0	38361	11970.459631607168	148
0	38365	11970.94830715491	149
0	38367	11970.956852593152	150
0	38368	11972.284694694959	149
0	38372	11973.081429384664	150
0	38373	11973.936324080311	149
0	38377	11974.951848081858	150
0	38378	11975.609857015915	149
0	38382	11976.309096788108	150
0	38384	11976.636018686667	151
0	38386	11976.706991318284	152
0	38387	11977.066485150575	151
0	38390	11978.885678771555	150
0	38394	11979.148486303375	151
0	38395	11980.704549256011	150
0	38399	11981.113406525571	151
0	38400	11982.16837826506	150
0	38404	11982.672578197418	151
0	38405	11984.155442421369	150
0	38409	11984.326389728542	151
0	38410	11985.370736142479	150
0	38414	11986.24983491449	151
0	38415	11987.166750553854	150
0	38419	11987.495716083781	151
0	38420	11988.952984145701	150
0	38423	11990.950771581985	149
0	38427	11992.333503669983	150
0	38429	11992.513687355768	151
0	38430	11992.72426199545	150
0	38433	11993.96930974149	149
0	38437	11994.461550546505	150
0	38439	11995.12838139258	151
0	38440	11995.50102107846	150
0	38444	11996.971024955383	151
0	38445	11997.498772106364	150
0	38449	11997.573560596412	151
0	38451	11999.178159801263	152
0	38452	11999.18855940555	151
0	38456	11999.703776683641	152
0	38457	12001.045770117126	151
0	38460	12002.527387722998	150
0	38463	12003.762359910688	149
0	38467	12004.325638352806	150
0	38470	12005.753121485046	149
0	38474	12007.497056928612	150
0	38476	12007.570385938178	151
0	38477	12007.666263304508	150
0	38481	12007.926322284169	151
0	38483	12008.953780668331	152
0	38486	12009.247951743236	151
0	38490	12009.982428943764	152
0	38491	12010.866955391174	151
0	38494	12012.429630836328	150
0	38498	12012.46604525348	151
0	38499	12014.367972247345	150
0	38503	12015.559128999026	151
[...]
5	95917	29946.707049811829	0
5	95952	29957.910596773236	1
5	95954	29958.126467072026	0
5	95960	29960.948834942303	1
5	95963	29962.417339246183	2
5	95965	29962.85268144445	1
5	95967	29963.366848170144	0
5	95970	29964.372668538078	1
5	95972	29964.599053023385	0
5	96021	29980.908517211698	1
5	96025	29981.728602452808	0
5	96076	29997.273659211232	1
5	96078	29997.443303880971	0
5	96081	29998.723085758484	1
5	96083	29998.970370199126	0
6	32433	10125.993620865843	273
6	32462	10133.013516711043	274
6	32532	10156.149244701772	275
6	32551	10161.1111554142	276
6	32755	10226.633189492217	277
6	32989	10298.80078158541	278
6	33099	10331.165959314302	279
6	33251	10374.427870098975	280
6	33337	10400.705922627379	281
6	33426	10427.569954572494	282
6	33487	10446.778515658658	283
6	33695	10512.887144441224	284
6	33848	10557.576527027325	285
6	34216	10673.378771037956	286
6	34240	10680.161515138773	287
6	34328	10705.805265103696	288
6	34369	10719.475738235127	289
6	34445	10743.220236564924	290
6	34647	10812.716326276278	291
6	34659	10815.696163318392	292
6	34762	10846.638930339709	293
6	34918	10898.089298813051	294
6	34993	10920.546236565916	295
6	35043	10937.907777921156	296
6	35066	10945.727673387848	297
6	35071	10947.708382672315	298
6	35087	10953.704298883583	299
6	35179	10980.420231805396	300
6	35194	10984.563669492767	301
6	35321	11025.333647840512	302
6	35572	11102.019591001183	303
6	35612	11116.497865510529	304
6	35632	11122.213648226898	305
6	35696	11142.794218467949	306
6	35701	11143.160415059948	307
6	35972	11226.578991628402	308
6	35982	11228.401638282753	309
6	36004	11235.257047383978	310
6	36006	11235.662411420121	311
6	36185	11291.416235046792	312
6	36244	11311.74724341919	313
6	36260	11314.433035737226	314
6	36284	11325.122894245182	315
6	36290	11325.681730135758	316
6	36442	11370.950492746528	317
6	36521	11394.257616664522	318
6	36616	11429.448415014971	319
6	36839	11499.817787878034	320
6	36925	11525.715984732434	321
6	36971	11537.069370472806	322
6	37058	11566.879312864823	323
6	37222	11621.454699793873	324
6	37323	11652.304768941939	325
6	37346	11656.15765911625	326
6	37394	11672.183862860016	327
6	37606	11739.815180677513	328
6	37727	11780.748044775167	329
6	37866	11821.069837902117	330
6	38115	11899.467736935031	331
6	38347	11964.61132939888	332
6	38469	12004.953051998753	333
6	38485	12009.08321076163	334
6	38572	12036.160232970927	335
6	38660	12066.012445062555	336
6	38767	12095.143993514499	337
6	38774	12096.843581547904	338
6	38784	12100.037055097397	339
6	39106	12199.451988280306	340
6	39231	12240.116841998201	341
6	39622	12366.847036905963	342
6	39829	12434.601110709303	343
6	39969	12482.615626829574	344
6	40085	12514.983189605196	345
6	40350	12592.225265499618	346
6	40376	12601.652261784611	347
6	40534	12649.773803722856	348
6	40599	12672.746983625401	349
6	40631	12683.833112579917	350
6	40977	12785.903979049203	351
6	41350	12905.634801897747	352
6	41487	12951.216380450699	353
6	41534	12962.447772631779	354
6	41536	12962.579684812814	355
6	41604	12981.854988844789	356
6	41633	12990.601269714664	357
6	41939	13082.956006818415	358
6	41983	13098.381024854337	359
6	42506	13264.800680170712	360
6	42580	13286.973349777542	361
6	42685	13317.56268344695	362
6	42815	13354.471939173135	363
6	42850	13366.014321617747	364
6	42863	13370.759320022073	365
6	42884	13375.200058469888	366
6	42986	13408.058101028218	367
6	43077	13435.516700758749	368
6	43131	13451.676991644769	369
6	43253	13489.523261297063	370
6	43406	13535.581053698087	371
6	43514	13569.827785199581	372
6	43592	13592.934282609962	373
6	43761	13649.465683229877	374
6	43778	13654.639763920214	375
6	43833	13673.461660351294	376
6	44114	13760.773306658992	377
6	44167	13776.898763537254	378
6	44174	13777.961457933813	379
6	44260	13804.690056817048	380
6	44300	13816.477106968283	381
6	44556	13895.284458577222	382
6	44772	13955.592020023531	383
6	44848	13979.905030340273	384
6	45006	14028.431219660512	385
6	45042	14038.602587814707	386
6	45108	14060.08800399433	387
6	45258	14104.637628591415	388
6	45354	14133.409711028492	389
6	45376	14138.739258744681	390
6	45380	14138.929267103759	391
6	45389	14141.203643657784	392
6	45406	14145.551654376806	393
6	45436	14155.385876444759	394
6	45479	14169.451586843533	395
6	45503	14177.323720725846	396
6	45531	14183.136349607579	397
6	45551	14186.990582937248	398
6	45580	14194.353092298371	399
6	45715	14239.587849779155	400
6	45809	14268.345081916212	401
6	45875	14290.464681930602	402
6	45888	14295.028125042861	403
6	45915	14304.237003072969	404
6	45975	14325.189274503629	405
6	45980	14326.810167914652	406
6	46152	14378.363088045982	407
6	46458	14472.263440728489	408
6	46972	14635.937874351651	409
6	47250	14724.149948823141	410
6	47320	14745.348734031395	411
6	47400	14770.378576777792	412
6	47625	14840.833139651082	413
6	47669	14849.868746579884	414
6	47805	14894.23007168178	415
6	47848	14907.903276551134	416
6	47868	14913.28423589708	417
6	47911	14925.047009541904	418
6	47988	14949.553960666194	419
6	48089	14982.788440544117	420
6	48175	15013.665474702401	421
6	48372	15073.901002698886	422
6	48478	15106.65394996711	423
6	48579	15137.246163621464	424
6	48611	15143.375880112606	425
6	48626	15148.601215640469	426
6	49007	15260.76278345923	427
6	49048	15271.15062185775	428
6	49119	15291.145589989156	429
6	49154	15302.184647837257	430
6	49196	15317.212572588892	431
6	49298	15345.707838185903	432
6	49499	15408.46758697938	433
6	49587	15437.10449124673	434
6	49736	15483.33291099521	435
6	49920	15548.245532972616	436
6	49938	15554.278442249481	437
6	49995	15569.589964436737	438
6	50047	15585.124098094017	439
6	50091	15596.457231520315	440
6	50325	15675.615048187064	441
6	50662	15780.943985091647	442
6	50703	15792.351260574325	443
6	50819	15829.989435360357	444
6	51071	15910.601907676836	445
6	51073	15910.704475955468	446
6	51179	15945.626610284677	447
6	51419	16022.302936664511	448
6	51519	16052.531165163444	449
6	51655	16102.645396103487	450
6	51731	16128.170367685165	451
6	51865	16165.849877606882	452
6	51867	16165.884764231927	453
6	51877	16168.35326766313	454
6	51889	16171.354413203305	455
6	51915	16178.635755936748	456
6	52001	16206.650064555984	457
6	52086	16234.288415712496	458
6	52119	16241.319239886156	459
6	52123	16241.417981386533	460
6	52182	16260.84694498498	461
6	52401	16332.780144091937	462
6	52618	16402.581362175684	463
6	52741	16438.622454425566	464
6	52880	16484.897205141113	465
6	52901	16489.708793136607	466
6	52920	16495.304581523956	467
6	52951	16506.075491288638	468
6	52961	16508.423332890572	469
6	53050	16538.601299667167	470
6	53096	16550.401368110718	471
6	53400	16646.537411752581	472
6	53458	16662.399482066045	473
6	53502	16675.016225529866	474
6	53512	16678.266109283886	475
6	53671	16729.796379668937	476
6	53795	16767.362247371198	477
6	53814	16774.956249019827	478
6	53896	16800.416419135393	479
6	53898	16801.028980892856	480
6	53945	16811.596834454899	481
6	53995	16828.941880048694	482
6	54002	16829.50181468203	483
6	54344	16932.681811810887	484
6	54516	16987.543428674732	485
6	54544	16997.743734759583	486
6	54560	16999.423622155466	487
6	54616	17019.828579842993	488
6	54722	17054.175394365518	489
6	54877	17097.295015227345	490
6	54995	17133.845826604928	491
6	55072	17154.438134144744	492
6	55212	17198.189124518602	493
6	55461	17277.698778381836	494
6	55523	17298.041518399077	495
6	55677	17344.678772736309	496
6	55716	17356.050638995016	497
6	55879	17403.6831008403	498
6	55909	17414.135592747731	499
6	56205	17502.760597085029	500
6	56217	17505.608603210703	501
6	56332	17541.709217142916	502
6	56462	17582.254245281846	503
6	56471	17584.839511826771	504
6	56511	17597.697530647252	505
6	56626	17635.460779639776	506
6	56656	17646.314244980311	507
6	57040	17764.078658938669	508
6	57072	17772.598355653369	509
6	57124	17792.779145596336	510
6	57135	17795.334170727381	511
6	57203	17817.533838136064	512
6	57227	17823.304738514123	513
6	57335	17855.135879394695	514
6	57441	17886.500456213035	515
6	57477	17894.637270506352	516
6	57531	17910.631957102595	517
6	57699	17966.392758447933	518
6	57876	18020.934062882761	519
6	58105	18095.130727613268	520
6	58242	18135.011889834691	521
6	58271	18142.413805057084	522
6	58379	18179.93140903094	523
6	58525	18223.333014423469	524
6	58542	18228.397581297805	525
6	58567	18235.524549511593	526
6	58691	18272.90081909439	527
6	58716	18280.567995467359	528
6	58955	18360.591882368052	529
6	59047	18389.810164184897	530
6	59129	18414.710601567508	531
6	59143	18417.654701097759	532
6	59160	18424.034517991215	533
6	59229	18445.7255299285	534
6	59343	18483.090611450466	535
6	59471	18522.196185666951	536
6	59547	18544.949097225281	537
6	59780	18622.667870896747	538
6	59957	18672.005346412873	539
6	60043	18697.987837153314	540
6	60284	18776.224289266239	541
6	60380	18807.582424529624	542
6	60382	18807.721519997378	543
6	60467	18833.571928191886	544
6	60478	18836.223894615244	545
6	60498	18843.947229668985	546
6	60503	18845.198464272786	547
6	60558	18861.548849028428	548
6	60562	18862.213675633213	549
6	60585	18867.602745941341	550
6	60652	18887.23436244792	551
6	60666	18889.656806350629	552
6	60822	18936.404140335123	553
6	60849	18945.414213684412	554
6	60989	18993.136570661255	555
6	61050	19013.072752340102	556
6	61068	19017.664677879386	557
6	61152	19044.886800592587	558
6	61161	19046.305411215463	559
6	61454	19140.520022581386	560
6	61481	19147.977008060774	561
6	61645	19199.225917538936	562
6	61757	19233.955959239015	563
6	61772	19238.971597196536	564
6	61789	19243.253158580073	565
6	61942	19288.227739270336	566
6	62002	19308.059762523228	567
6	62102	19343.879089456676	568
6	62124	19350.962444814354	569
6	62161	19362.106528153678	570
6	62243	19389.752657806199	571
6	62310	19409.526968955713	572
6	62565	19493.664737559772	573
6	62592	19500.540323010827	574
6	62638	19513.372643386143	575
6	62672	19522.84272602106	576
6	62710	19536.702110274532	577
6	62782	19559.340330194074	578
6	62898	19594.892611353503	579
6	63249	19710.220017454488	580
6	63287	19721.017965848734	581
6	63500	19787.914498168525	582
6	63522	19794.061283438351	583
6	63569	19808.141896806166	584
6	63649	19835.424857512917	585
6	63702	19849.572644817781	586
6	63838	19894.880196197226	587
6	63843	19895.711759239812	588
6	63845	19897.131259269847	589
6	63908	19913.11187148126	590
6	64110	19975.563673224815	591
6	64122	19979.297051242072	592
6	64433	20079.488599489111	593
6	64486	20096.14046171512	594
6	64513	20104.248747179378	595
6	64599	20133.065169244109	596
6	64848	20221.671048774986	597
6	65080	20296.857690882851	598
6	65216	20346.771456915236	599
6	65268	20363.511819223538	600
6	65322	20380.033898660116	601
6	65432	20412.714903666248	602
6	65842	20543.257558489021	603
6	65963	20586.370779744672	604
6	65977	20589.513706472283	605
6	66048	20608.985888003381	606
6	66278	20679.842232613342	607
6	66417	20724.97203569141	608
6	66511	20753.517694388372	609
6	66554	20768.498957511747	610
6	66840	20856.103444296272	611
6	66891	20871.606776535489	612
6	66948	20889.393035356147	613
6	67018	20908.808665648308	614
6	67156	20952.906279687519	615
6	67326	21007.383485059618	616
6	67378	21025.487896247405	617
6	67484	21058.795667365835	618
6	67726	21136.058153097352	619
6	67756	21146.66525677948	620
6	67767	21148.905325551663	621
6	67832	21168.175458892388	622
6	67871	21179.206910478712	623
6	68319	21320.056826032122	624
6	68333	21323.800342194881	625
6	68442	21362.234454018017	626
6	68467	21370.545474842323	627
6	68538	21391.329740776666	628
6	68624	21418.92806510125	629
6	68919	21516.126087611867	630
6	68934	21520.260137234571	631
6	68998	21538.758094955298	632
6	69087	21564.662835102404	633
6	69221	21605.739234921331	634
6	69263	21619.161676116274	635
6	69329	21641.687022616624	636
6	69434	21674.096160582274	637
6	69597	21724.266216747146	638
6	69602	21725.833484450847	639
6	69714	21757.514041288483	640
6	69724	21760.477884890762	641
6	69746	21766.838496039664	642
6	69758	21770.530645356844	643
6	69843	21793.042242848732	644
6	70106	21872.028577146266	645
6	70131	21879.907189669461	646
6	70246	21915.860549533211	647
6	70343	21946.586329647885	648
6	70479	21992.037987010582	649
6	70563	22017.683426608352	650
6	70614	22034.372855845964	651
6	70926	22133.18869304827	652
6	70936	22135.731189067357	653
6	71012	22158.142336561889	654
6	71017	22159.820683905426	655
6	71036	22164.921522868526	656
6	71079	22179.567723444108	657
6	71279	22243.462718725471	658
6	71340	22257.7229555611	659
6	71443	22290.453683062992	660
6	71493	22307.356797373997	661
6	71517	22312.632147504328	662
6	71649	22350.321032170251	663
6	71677	22359.953180387955	664
6	71694	22364.666989287471	665
6	71711	22368.878994910512	666
6	71770	22382.510489506737	667
6	71811	22394.589938883166	668
6	71892	22419.853902692893	669
6	72105	22484.317857182568	670
6	72172	22508.310871382194	671
6	72255	22532.680593299611	672
6	72308	22550.965262320717	673
6	72787	22704.406510195386	674
6	72886	22733.605279204726	675
6	72950	22751.969740035993	676
6	73165	22818.596298370362	677
6	73284	22854.200545827641	678
6	73466	22913.609516383196	679
6	73478	22916.706204091921	680
6	73490	22920.139496355644	681
6	73643	22967.885443652215	682
6	73724	22992.373972309551	683
6	74047	23096.189262546326	684
6	74219	23151.900736302713	685
6	74448	23219.235669403602	686
6	74504	23236.566085569459	687
6	74561	23252.885131284387	688
6	74591	23263.531452160762	689
6	74617	23271.25081935786	690
6	74637	23278.194636118475	691
6	74746	23310.95415008432	692
6	74769	23316.255496889231	693
6	75078	23420.155709140411	694
6	75288	23488.22677826176	695
6	75327	23499.887632113748	696
6	75363	23509.614937918413	697
6	75380	23514.387898894348	698
6	75569	23575.934697093505	699
6	75645	23599.02498892462	700
6	75734	23627.903582370083	701
6	75736	23629.558303020318	702
6	75768	23639.054572964601	703
6	75852	23664.211821712688	704
6	75922	23689.262259309458	705
6	75924	23689.301940291918	706
6	75948	23698.968870689422	707
6	75992	23712.632039921004	708
6	76182	23773.496168573272	709
6	76247	23796.699800495058	710
6	76440	23854.881488857391	711
6	76562	23892.788741263369	712
6	76645	23919.821769270843	713
6	76690	23934.152843975761	714
6	76769	23962.316375766426	715
6	76914	24008.838316892821	716
6	76921	24009.913870419918	717
6	76925	24010.772220003354	718
6	77018	24038.557884324212	719
6	77272	24121.404453996597	720
6	77408	24165.549480219143	721
6	77629	24229.579062176931	722
6	77772	24273.007589419491	723
6	77819	24287.074644632626	724
6	77978	24337.634723535762	725
6	77987	24338.96330575773	726
6	78145	24392.35593093173	727
6	78230	24419.339805728658	728
6	78261	24429.918682052926	729
6	78345	24452.661427986957	730
6	78387	24466.12268294198	731
6	78436	24480.984468607876	732
6	78609	24532.073384728512	733
6	78629	24538.42201723273	734
6	78750	24577.071704410443	735
6	78984	24647.59846383331	736
6	79001	24653.436971697922	737
6	79006	24653.72001000189	738
6	79092	24682.561881548055	739
6	79159	24702.153720527695	740
6	79163	24703.450871539589	741
6	79189	24712.805339093223	742
6	79191	24713.071537641429	743
6	79201	24716.031750764364	744
6	79264	24736.00946051735	745
6	79348	24763.590347194409	746
6	79370	24769.181103085799	747
6	79546	24823.328964686201	748
6	80004	24963.874586237064	749
6	80037	24971.674606111586	750
6	80085	24988.491660680068	751
6	80132	25002.622562672882	752
6	80280	25048.237493113338	753
6	80300	25054.1889513108	754
6	80302	25054.877519518555	755
6	80359	25073.153742284013	756
6	80395	25086.318945743491	757
6	80619	25160.255565951571	758
6	80639	25167.276617857648	759
6	80693	25182.071843756933	760
6	80799	25212.046094470675	761
6	80844	25225.775732879785	762
6	80958	25265.512081977201	763
6	80975	25269.78181483739	764
6	81234	25349.374175805877	765
6	81314	25375.416115245604	766
6	81323	25377.780995315559	767
6	81567	25457.501218603403	768
6	81783	25525.991959398184	769
6	81860	25551.239609585567	770
6	81920	25571.612598159712	771
6	81987	25590.864416150942	772
6	82218	25659.829585747826	773
6	82420	25722.722948153222	774
6	82486	25741.13755407701	775
6	82602	25775.066777635108	776
6	82761	25829.071560299686	777
6	83136	25949.014628138628	778
6	83164	25958.039666615891	779
6	83341	26010.37961643933	780
6	83495	26062.835112675092	781
6	83520	26068.973577539669	782
6	83730	26133.495064839321	783
6	83771	26144.819179145097	784
6	83840	26165.830280171626	785
6	84192	26277.055853093193	786
6	84202	26280.401372367715	787
6	84283	26304.068760325462	788
6	84395	26342.151241876726	789
6	84539	26383.172190169997	790
6	84650	26422.342261154921	791
6	85143	26584.213329401102	792
6	85187	26597.467711027266	793
6	85202	26601.197077713152	794
6	85269	26620.168773071727	795
6	85271	26620.202419217296	796
6	85377	26653.477209714632	797
6	85723	26762.374833764525	798
6	85828	26797.646988154274	799
6	85869	26812.345822131867	800
6	85945	26836.012880897575	801
6	85984	26846.404625752845	802
6	86092	26880.299617905008	803
6	86096	26880.922918558503	804
6	86315	26954.976616056512	805
6	86326	26957.666422832925	806
6	86333	26958.571093388368	807
6	86406	26982.028675061125	808
6	86918	27135.981242655722	809
6	87113	27197.899753909394	810
6	87118	27199.008319875573	811
6	87179	27217.670997034985	812
6	87184	27219.37370847201	813
6	87235	27234.218488460975	814
6	87399	27281.503110276027	815
6	87413	27284.37102691082	816
6	87480	27306.653640915633	817
6	87593	27344.766851612356	818
6	87801	27407.951317966107	819
6	87803	27408.484423169967	820
6	87890	27436.084841271044	821
6	87976	27460.40395674747	822
6	87985	27463.425747118098	823
6	88082	27496.897868031785	824
6	88099	27501.657477818029	825
6	88138	27511.921563559952	826
6	88173	27524.731824914416	827
6	88298	27561.523800205884	828
6	88459	27613.825584622705	829
6	88641	27670.863171441156	830
6	88740	27704.085049071686	831
6	88852	27738.077424110903	832
6	88933	27763.759953762111	833
6	88935	27764.967892838042	834
6	89056	27801.571277685885	835
6	89283	27871.232322936947	836
6	89498	27939.370683083238	837
6	89753	28015.156218164932	838
6	89805	28029.89872937198	839
6	90017	28101.712400224817	840
6	90041	28107.905184905961	841
6	90079	28117.616541685477	842
6	90154	28141.866049322256	843
6	90220	28162.10900578923	844
6	90250	28171.30886591569	845
6	90281	28180.38520210804	846
6	90524	28258.677533628454	847
6	90609	28288.281957627349	848
6	90624	28292.680094293597	849
6	90773	28343.27626756437	850
6	90848	28367.353237402583	851
6	90887	28378.691940103461	852
6	91070	28436.745187780387	853
6	91098	28445.018534802989	854
6	91148	28459.07499334975	855
6	91248	28484.390694633579	856
6	91255	28486.406346660975	857
6	91275	28492.189820722201	858
6	91375	28523.678858061292	859
6	91399	28530.350433909849	860
6	91461	28550.805253484191	861
6	91483	28560.267563335849	862
6	91556	28582.742675543235	863
6	91647	28609.874065939945	864
6	91711	28631.716012199751	865
6	91803	28661.015923683729	866
6	91812	28664.185378115925	867
6	91912	28696.20007454636	868
6	92024	28732.706763246592	869
6	92036	28736.587028322354	870
6	92041	28737.476956884331	871
6	92389	28857.111156392214	872
6	92458	28875.918351545113	873
6	92500	28889.857134199458	874
6	92602	28921.907517480552	875
6	92667	28946.405636442562	876
6	92682	28949.980800949072	877
6	92828	28993.246074029251	878
6	92872	29008.138011548276	879
6	93246	29124.704742376094	880
6	93321	29150.511076363093	881
6	93422	29184.412638063934	882
6	93556	29222.93863594145	883
6	93675	29258.731007317285	884
6	93722	29272.658685126798	885
6	93744	29279.351370068256	886
6	93967	29341.377884651891	887
6	93987	29346.980907398988	888
6	94001	29354.294294502154	889
6	94115	29391.451474504346	890
6	94334	29458.986744310426	891
6	94411	29482.046098436315	892
6	94539	29517.212300129402	893
6	94584	29531.840312489864	894
6	94589	29533.135925814262	895
6	94632	29547.231025999432	896
6	94932	29646.551126468416	897
6	95152	29716.749380832954	898
6	95380	29789.009041805102	899
6	95409	29796.510963258018	900
6	95778	29906.357167876009	901
6	95853	29928.117014439344	902
6	95900	29941.003851811312	903
6	95947	29956.431865132561	904
6	95983	29968.625965040147	905

