version 2
run Third_exit_5-14-20191114-11:42:57-9023
attr configname Third_exit_5
attr datetime 20191114-11:42:57
attr experiment Third_exit_5
attr inifile omnetpp.ini
attr iterationvars ""
attr iterationvarsf ""
attr measurement ""
attr network ResponseTimeNetwork
attr processid 9023
attr repetition 14
attr replication #14
attr resultdir results
attr runnumber 14
attr seedset 14
param **.Source.interArrivalTime exponential(6s)
param **.jobPriority bernoulli(0.8)
param **.PS.serviceTimeU1 "uniform(1.2s, 2.0s)"
param **.PS.serviceTimeU2 "uniform(2.4s, 2.8s)"
param **.SS1.serviceTime exponential(1.4s)
param **.SS2.serviceTime exponential(2s)
param **.PS.exitProbability bernoulli(0.5)

vector 0 ResponseTimeNetwork.QueueU1 queueLength:vector ETV
attr interpolationmode sample-hold
attr title "queue length, vector"
vector 1 ResponseTimeNetwork.sink lifeTimeU1:vector ETV
attr interpolationmode none
attr title "lifetime of arrived jobs U1, vector"
attr unit s
vector 2 ResponseTimeNetwork.sink totalServiceTimeU1:vector ETV
attr interpolationmode none
attr title "the total time spent  by arrived jobs U1, vector"
attr unit s
vector 3 ResponseTimeNetwork.sink lifeTime:vector ETV
attr interpolationmode none
attr title "lifetime of arrived jobs, vector"
attr unit s
vector 4 ResponseTimeNetwork.sink totalServiceTime:vector ETV
attr interpolationmode none
attr title "the total time spent  by arrived jobs, vector"
attr unit s
vector 5 ResponseTimeNetwork.QueueU2 queueLength:vector ETV
attr interpolationmode sample-hold
attr title "queue length, vector"
vector 6 ResponseTimeNetwork.sink lifeTimeU2:vector ETV
attr interpolationmode none
attr title "lifetime of arrived jobs U2, vector"
attr unit s
vector 7 ResponseTimeNetwork.sink totalServiceTimeU2:vector ETV
attr interpolationmode none
attr title "the total time spent  by arrived jobs U2, vector"
attr unit s
vector 8 ResponseTimeNetwork.SS1 queueLength:vector ETV
attr interpolationmode sample-hold
attr title "queue length, vector"
vector 9 ResponseTimeNetwork.SS2 queueLength:vector ETV
attr interpolationmode sample-hold
attr title "queue length, vector"
0	15773	10000.879878986534	0
0	15780	10004.367909234609	1
0	15781	10004.380273473356	0
0	15785	10005.209585762136	1
0	15787	10005.936030631535	2
0	15788	10006.331870880071	1
0	15792	10006.549127892189	2
0	15793	10008.305618958641	1
0	15797	10008.911114122599	2
0	15798	10009.735130182002	1
0	15802	10009.866446500891	2
0	15804	10010.581151241342	3
0	15805	10011.034770215582	2
0	15809	10012.533360330904	3
0	15810	10012.55493652476	2
0	15814	10012.631695781328	3
0	15816	10012.655043891068	4
0	15818	10012.702214631818	5
0	15819	10014.339825640153	4
0	15823	10015.246906951506	5
0	15824	10015.882962864544	4
0	15828	10017.79108468905	5
0	15829	10017.834268002864	4
0	15832	10019.062471077871	3
0	15836	10019.600759523525	4
0	15837	10020.265709075425	3
0	15840	10021.615284501109	2
0	15844	10022.307757090742	3
0	15847	10023.38252492724	2
0	15850	10025.194045771379	1
0	15854	10025.463633480269	2
0	15855	10027.16047565164	1
0	15859	10027.175797426216	2
0	15861	10027.287108400599	3
0	15862	10028.843009071704	2
0	15865	10030.299432390835	1
0	15869	10031.563739346881	2
0	15870	10031.700408795941	1
0	15873	10033.630913734529	0
0	15877	10034.657452736756	1
0	15878	10035.051416727621	0
0	15890	10037.899762350513	1
0	15893	10039.248431962449	0
0	15897	10040.204040000235	1
0	15898	10040.702393629495	0
0	15935	10076.46347917798	1
0	15936	10077.488293400123	0
0	15940	10077.962007213963	1
0	15941	10079.397877200595	0
0	15955	10091.712535759743	1
0	15956	10092.348989283115	0
0	15965	10094.083082776111	1
0	15966	10095.430757407107	0
0	15985	10102.045063741494	1
0	15987	10102.325437238035	2
0	15988	10103.483920591249	1
0	15991	10104.964519201889	0
0	16005	10133.959184631308	1
0	16006	10134.094014060378	0
0	16030	10146.489015825762	1
0	16031	10147.453810580295	0
0	16042	10152.560967992532	1
0	16043	10152.626230272336	0
0	16052	10155.532783341578	1
0	16053	10155.91098521786	0
0	16095	10205.730876055243	1
0	16096	10206.222669194616	0
0	16115	10213.656684848676	1
0	16116	10215.060801285	0
0	16125	10217.973649652734	1
0	16126	10218.172799416047	0
0	16215	10359.293690559357	1
0	16216	10359.596056706156	0
0	16225	10361.062845016932	1
0	16228	10362.608679551515	0
0	16235	10364.179836539092	1
0	16236	10365.810671884078	0
0	16315	10455.814797515071	1
0	16316	10456.401900308049	0
0	16320	10456.619927135262	1
0	16321	10458.320469040452	0
0	16335	10463.261099589418	1
0	16336	10463.312092804098	0
0	16340	10464.170719664467	1
0	16341	10464.696208099955	0
0	16345	10465.424884358957	1
0	16346	10466.273522934997	0
0	16355	10473.525258368779	1
0	16356	10474.500697834784	0
0	16400	10525.745552743451	1
0	16401	10525.833482325915	0
0	16445	10547.99715023914	1
0	16447	10548.353450622166	2
0	16448	10549.030427574193	1
0	16451	10550.533564670769	0
0	16545	10624.037254121331	1
0	16546	10625.10996451914	0
0	16555	10627.738843450933	1
0	16557	10627.925053845595	2
0	16558	10628.823640784702	1
0	16562	10630.433399724406	2
0	16563	10630.69103349623	1
0	16567	10631.689389307743	2
0	16569	10632.110569456287	3
0	16570	10632.129631443217	2
0	16574	10632.610305880942	3
0	16575	10634.050740323297	2
0	16578	10635.301333489537	1
0	16582	10635.440110616021	2
0	16584	10636.298642241344	3
0	16586	10636.704272932215	4
0	16587	10636.76515469522	3
0	16593	10638.360016729805	4
0	16594	10638.442471828207	3
0	16598	10639.012757988404	4
0	16600	10639.296204348091	5
0	16601	10639.689728948556	4
0	16605	10639.970535228019	5
0	16607	10640.374945649956	6
0	16608	10641.199895273231	5
0	16612	10641.22503613598	6
0	16613	10642.524333363853	5
0	16617	10642.851765204393	6
0	16618	10643.998677432432	5
0	16622	10644.277891480709	6
0	16623	10645.673269168182	5
0	16626	10647.425415462336	4
0	16630	10647.867359727778	5
0	16632	10648.366683462888	6
0	16633	10649.308315508707	5
0	16637	10649.953261154181	6
0	16638	10651.056814241862	5
0	16642	10651.146781879896	6
0	16644	10651.646502718322	7
0	16645	10652.56908173178	6
0	16648	10654.38688893289	5
0	16651	10655.672962357557	4
0	16654	10657.026758158846	3
0	16657	10658.742979794262	2
0	16661	10660.470388134114	3
0	16662	10660.710512941411	2
0	16665	10662.362062336771	1
0	16668	10663.836793083033	0
0	16675	10665.197552484559	1
0	16676	10666.521831679797	0
0	16690	10675.459042743627	1
0	16691	10677.232498906352	0
0	16700	10678.70321000692	1
0	16701	10680.325859428183	0
0	16720	10686.195796975368	1
0	16721	10687.213575490808	0
0	16727	10688.249195088846	1
0	16728	10688.651730272604	0
0	16735	10691.350544606452	1
0	16736	10691.675974200165	0
0	16770	10708.055436777346	1
0	16771	10709.291936400672	0
0	16775	10709.92705664154	1
0	16777	10710.219100698076	2
0	16778	10710.664376512868	1
0	16782	10712.285780592787	2
0	16783	10712.580661078496	1
0	16786	10714.41655064649	0
0	16790	10714.654423379672	1
0	16791	10716.152601900092	0
0	16795	10716.515267117701	1
0	16796	10718.039535734198	0
0	16805	10720.905405790297	1
0	16806	10722.189239676738	0
0	16810	10722.40873559771	1
0	16811	10723.419715248676	0
0	16815	10724.903686570274	1
0	16816	10725.294391818413	0
0	16825	10728.941641619339	1
0	16826	10729.001817809131	0
0	16830	10729.705076011387	1
0	16832	10729.945172193702	2
0	16833	10730.935799226437	1
0	16836	10732.316671843726	0
0	16845	10734.858710173113	1
0	16846	10735.29151889917	0
0	16860	10745.575368303259	1
0	16862	10746.131653067645	2
0	16863	10746.355646777387	1
0	16867	10746.968181018361	2
0	16868	10747.840658068332	1
0	16872	10748.681172812705	2
0	16873	10749.483665518697	1
0	16876	10750.784278278846	0
0	16910	10774.986625489843	1
0	16911	10776.308464918536	0
0	16935	10790.261209680248	1
0	16936	10791.893718597963	0
0	16945	10794.057664865014	1
0	16946	10795.512465015145	0
0	16960	10800.790302142367	1
0	16961	10801.020922576953	0
0	16965	10801.295901932933	1
0	16966	10802.906103291307	0
0	17040	10882.502268952354	1
0	17041	10882.83592869176	0
0	17055	10886.909376551551	1
0	17056	10888.429957910823	0
0	17060	10889.163730770824	1
0	17062	10889.181846469646	2
0	17064	10889.782196513602	3
0	17065	10890.245144680711	2
0	17069	10890.295716278993	3
0	17071	10890.844124816111	4
0	17073	10891.040904673749	5
0	17074	10892.140865092176	4
0	17078	10892.223685875547	5
0	17080	10892.296678242535	6
0	17081	10894.113709544773	5
0	17084	10895.403005160401	4
0	17087	10896.905802594694	3
0	17090	10898.633236998888	2
0	17094	10898.847401187071	3
0	17095	10899.91656093021	2
0	17099	10901.346295652127	3
0	17100	10901.509998220029	2
0	17104	10901.532855478255	3
0	17105	10903.198303195099	2
0	17108	10904.482231030437	1
0	17111	10906.352064340944	0
0	17120	10910.453743374612	1
0	17121	10910.513150844656	0
0	17145	10926.495689289598	1
0	17146	10927.200484949485	0
0	17165	10935.01264486369	1
0	17167	10935.654238286641	2
0	17168	10936.058613105117	1
0	17171	10938.033750286325	0
0	17185	10949.486727279734	1
0	17186	10950.393177946085	0
0	17235	10989.502385023879	1
0	17236	10990.28996333478	0
0	17240	10991.042377303936	1
0	17241	10991.710622185264	0
0	17245	10993.107414280061	1
0	17246	10993.493516048584	0
0	17265	11000.26933478446	1
0	17266	11000.747046303698	0
0	17280	11007.503050371643	1
0	17283	11008.903690524314	0
0	17292	11011.343422642995	1
0	17294	11011.473620286276	2
0	17295	11012.353516823713	1
0	17298	11013.751226944577	0
0	17315	11018.952611181773	1
0	17316	11020.006548644813	0
0	17330	11024.174860595298	1
0	17333	11025.34047597854	0
0	17337	11025.631717625343	1
0	17338	11026.768294676603	0
0	17345	11029.070939627443	1
0	17346	11029.603283470147	0
0	17375	11045.221965364707	1
0	17376	11046.555123611978	0
0	17385	11048.686936097191	1
0	17386	11050.447927284735	0
0	17390	11050.666076948543	1
0	17391	11052.270224870304	0
0	17395	11053.395865819156	1
0	17396	11054.139208625565	0
0	17400	11055.285290058856	1
0	17402	11055.495548766377	2
0	17403	11056.067056678916	1
0	17407	11056.202035802266	2
0	17408	11057.722379007871	1
0	17412	11058.192228680053	2
0	17414	11058.201700469339	3
0	17416	11059.336866504869	4
0	17417	11059.40261564062	3
0	17421	11060.309618558862	4
0	17422	11060.929404539364	3
0	17426	11062.465675455973	4
0	17427	11062.831565563502	3
0	17431	11064.286309463113	4
0	17432	11064.65826552094	3
0	17436	11065.117909270122	4
0	17439	11066.064158204506	3
0	17443	11066.837280050716	4
0	17445	11066.861873280543	5
0	17448	11067.623783586669	4
0	17451	11069.008102047007	3
0	17454	11070.235462565097	2
0	17458	11071.16888919391	3
0	17460	11071.855185529542	4
0	17461	11071.935544801812	3
0	17464	11073.73701640417	2
0	17467	11075.59185946894	1
0	17471	11075.861687631422	2
0	17472	11076.868471271667	1
0	17478	11078.019974076067	2
0	17480	11078.463861421652	3
0	17481	11078.470385184448	2
0	17485	11079.528749551558	3
0	17486	11080.013316266548	2
0	17489	11081.979512747686	1
0	17493	11082.083093846082	2
0	17494	11083.604275397893	1
0	17497	11085.347691587854	0
0	17501	11085.802654814959	1
0	17502	11087.27686839414	0
0	17506	11087.577873684634	1
0	17507	11089.206720312994	0
0	17516	11091.080597245478	1
0	17517	11092.663276815537	0
0	17523	11093.216651970303	1
0	17524	11093.928970072541	0
0	17528	11095.533048312369	1
0	17529	11095.680078620772	0
0	17533	11096.579419939005	1
0	17534	11096.889011843438	0
0	17544	11101.055724076656	1
0	17545	11101.691990477527	0
0	17565	11109.44254171133	1
0	17568	11110.355373356025	0
0	17575	11112.827585695463	1
0	17576	11113.456190836149	0
0	17590	11133.132651442095	1
0	17591	11133.326615586673	0
0	17610	11145.736460562877	1
0	17612	11145.756935988588	2
0	17613	11146.683557780834	1
0	17616	11148.277442071775	0
0	17620	11149.506847447465	1
0	17621	11150.143842898497	0
0	17630	11152.268851676737	1
0	17632	11152.72253801609	2
0	17633	11153.700981947284	1
0	17636	11155.025254931178	0
0	17645	11158.925152914477	1
0	17646	11160.249359903303	0
0	17655	11162.746291609197	1
0	17656	11163.151575018873	0
0	17705	11203.350404598144	1
0	17706	11203.858689346729	0
0	17720	11213.13205654129	1
0	17721	11214.080402579331	0
0	17780	11289.548202852667	1
0	17781	11289.585029483868	0
0	17785	11289.617125740079	1
0	17787	11290.082757249858	2
0	17788	11291.079878921157	1
0	17791	11292.306102486236	0
0	17795	11293.302409851224	1
0	17797	11293.552177545236	2
0	17798	11294.129875917083	1
0	17801	11295.67237205608	0
0	17805	11295.987918665706	1
0	17808	11297.566176009832	0
0	17840	11309.135525719912	1
0	17841	11310.893273377335	0
0	17845	11311.252634563637	1
0	17847	11311.387622808135	2
0	17848	11312.759408930233	1
0	17852	11313.011691325056	2
0	17853	11314.256126241489	1
0	17857	11314.397793665846	2
0	17859	11315.537151747986	3
0	17860	11315.686129153995	2
0	17863	11317.502146376399	1
0	17866	11319.108967450177	0
0	17870	11320.019491634573	1
0	17871	11321.020200371658	0
0	17875	11322.47637885989	1
0	17876	11322.951247534444	0
0	17885	11325.344306410221	1
0	17886	11326.321394766542	0
0	17905	11337.070071561451	1
0	17906	11338.819613688605	0
0	17910	11339.345202497547	1
0	17911	11340.145751689354	0
0	17930	11348.688154146573	1
0	17931	11348.929546037315	0
0	17935	11349.684809554237	1
0	17937	11349.886426448077	2
0	17939	11350.053557064143	3
0	17940	11350.664475926197	2
0	17943	11352.076604571192	1
0	17946	11353.910276486909	0
0	17955	11357.086372587642	1
0	17956	11357.974387815375	0
0	17960	11359.44630646715	1
0	17961	11359.496651517194	0
0	17965	11360.866729000003	1
0	17966	11361.059905664589	0
0	17980	11380.851397089336	1
0	17982	11381.345779510178	2
0	17984	11381.490011540671	3
0	17985	11381.937821871202	2
0	17988	11383.898316781196	1
0	17992	11384.702406778033	2
0	17994	11384.768371262315	3
0	17995	11385.143581122878	2
0	18001	11386.017425631467	3
0	18003	11386.25996009222	4
0	18004	11386.70480229349	3
0	18007	11388.132823556076	2
0	18010	11390.01064765432	1
0	18013	11391.74406070185	0
0	18017	11392.305806583524	1
0	18019	11393.307120221813	2
0	18020	11393.37504397181	1
0	18023	11394.604230259146	0
0	18030	11396.72414230867	1
0	18031	11397.966300996739	0
0	18035	11398.883355996025	1
0	18036	11399.195679064627	0
0	18065	11412.425598230399	1
0	18066	11412.701221432928	0
0	18072	11413.991038710466	1
0	18073	11414.456781969052	0
0	18077	11414.657338380764	1
0	18078	11416.18905760238	0
0	18082	11417.412094590738	1
0	18083	11417.773059926574	0
0	18087	11418.921078780143	1
0	18088	11419.009947598931	0
0	18095	11421.24237729741	1
0	18096	11422.363040488605	0
0	18120	11438.382890180343	1
0	18123	11439.754974297716	0
0	18130	11441.718005998279	1
0	18131	11442.803647633365	0
0	18155	11468.789869781549	1
0	18158	11470.625492979716	0
0	18165	11472.928316671593	1
0	18167	11473.598217994022	2
0	18168	11473.758687012958	1
0	18174	11474.75821867438	2
0	18175	11475.430131780113	1
0	18178	11476.773097087386	0
0	18182	11477.584495675395	1
0	18183	11478.368156072627	0
0	18190	11480.413988494347	1
0	18191	11481.155772213768	0
0	18195	11481.195411624639	1
0	18196	11483.005084266271	0
0	18200	11483.694564738409	1
0	18201	11484.50238705663	0
0	18205	11485.10999247461	1
0	18206	11486.103474762048	0
0	18270	11553.493658164931	1
0	18271	11554.576117589445	0
0	18310	11574.695018595751	1
0	18312	11575.195361344604	2
0	18313	11576.183215494726	1
0	18317	11576.545817454122	2
0	18320	11577.850362648528	1
0	18323	11579.412374727886	0
0	18335	11583.433516050504	1
0	18336	11585.220989120781	0
0	18350	11599.703601927598	1
0	18352	11600.128159597495	2
0	18353	11600.881469049285	1
0	18356	11602.125023911687	0
0	18370	11605.609241685592	1
0	18371	11606.859884062278	0
0	18380	11609.762953253641	1
0	18381	11610.475921643475	0
0	18405	11622.242340631434	1
0	18406	11623.427205905012	0
0	18410	11623.919577164069	1
0	18411	11624.706411572985	0
0	18435	11654.177683974357	1
0	18436	11654.736652934645	0
0	18455	11665.680872447702	1
0	18456	11666.841187076653	0
0	18460	11667.367105675868	1
0	18461	11668.174297381947	0
0	18465	11668.388075558254	1
0	18466	11669.552387776235	0
0	18470	11670.076322997134	1
0	18471	11671.45370321908	0
0	18475	11671.61074711637	1
0	18476	11673.320844318354	0
0	18490	11677.559763814092	1
0	18491	11678.303875290533	0
0	18495	11679.41046621311	1
0	18497	11679.510105435653	2
0	18498	11679.996217215551	1
0	18502	11681.253711163034	2
0	18503	11681.747804453341	1
0	18506	11683.314642026579	0
0	18512	11683.99540416037	1
0	18513	11685.044350491395	0
0	18535	11699.282644815212	1
0	18536	11699.643258860884	0
0	18560	11720.363452819796	1
0	18561	11720.812757777159	0
0	18570	11724.733293139085	1
0	18571	11724.833518550728	0
0	18610	11767.673946541161	1
0	18611	11768.845343363492	0
0	18615	11769.098818102226	1
0	18616	11770.789329672998	0
0	18630	11785.639124055777	1
0	18631	11786.135468280372	0
0	18635	11786.489486091738	1
0	18637	11787.253154130838	2
0	18640	11788.110597771835	1
0	18643	11789.36474889746	0
0	18652	11792.103069546338	1
0	18654	11792.368754092583	2
0	18655	11792.509783404377	1
0	18658	11793.971217537169	0
0	18665	11796.200552597789	1
0	18667	11796.307842568466	2
0	18669	11797.434777708597	3
0	18670	11797.443500392755	2
0	18674	11798.369477468544	3
0	18675	11798.737021020112	2
0	18679	11799.508260013517	3
0	18680	11800.642495687177	2
0	18683	11801.891606754867	1
0	18687	11802.175208108955	2
0	18689	11803.017066146442	3
0	18692	11803.795926940685	2
0	18696	11804.208562543264	3
0	18697	11805.637918267084	2
0	18701	11806.120286071524	3
0	18703	11806.416057122673	4
0	18704	11807.060022372251	3
0	18708	11807.423631228228	4
0	18710	11807.646541941524	5
0	18711	11808.680969254357	4
0	18714	11810.552851522026	3
0	18721	11812.453739141171	2
0	18724	11814.328719739673	1
0	18728	11815.171876932366	2
0	18729	11816.211883558949	1
0	18733	11817.333405739316	2
0	18734	11817.774329680448	1
0	18737	11819.559223159274	0
0	18746	11822.422002251003	1
0	18747	11822.624675703666	0
0	18751	11822.962984039279	1
0	18754	11824.155872928596	0
0	18758	11824.850750948506	1
0	18759	11825.593964038289	0
0	18763	11826.536235757993	1
0	18764	11826.942224999203	0
0	18774	11830.745394929201	1
0	18775	11831.787401795446	0
0	18784	11833.677758917851	1
0	18786	11833.780485584776	2
0	18787	11835.486679521075	1
0	18790	11837.407217086165	0
0	18797	11839.226434378675	1
0	18798	11839.971570569149	0
0	18802	11840.434392122352	1
0	18804	11840.439121417669	2
0	18805	11841.702405566036	1
0	18809	11842.13025805778	2
0	18810	11843.58805970332	1
0	18814	11845.13267273054	2
0	18815	11845.502452210955	1
0	18819	11845.606817279409	2
0	18820	11847.258079343907	1
0	18824	11847.447945173618	2
0	18826	11847.643928848373	3
0	18828	11848.235223298649	4
0	18829	11849.196555343329	3
0	18833	11849.396019968665	4
0	18835	11850.406430362556	5
0	18836	11851.007574036962	4
0	18840	11851.633496824013	5
0	18841	11852.764597458637	4
0	18844	11854.127807831078	3
0	18848	11855.591691731472	4
0	18849	11855.715195609315	3
0	18853	11855.78195792423	4
0	18854	11857.153759147471	3
0	18857	11858.619392212352	2
0	18860	11860.236372482462	1
0	18863	11861.834693509212	0
0	18867	11862.022966206219	1
0	18869	11862.785341414441	2
0	18870	11863.20201108685	1
0	18874	11863.36422899073	2
0	18875	11864.523281174025	1
0	18878	11866.197118652484	0
0	18915	11896.060536016063	1
0	18917	11897.556982081641	2
0	18918	11897.619297976748	1
0	18922	11898.001495499172	2
0	18923	11899.619231558361	1
0	18926	11901.335666128949	0
0	18930	11902.179686701374	1
0	18931	11903.082361887351	0
0	18950	11911.246994880746	1
0	18952	11912.924299351556	2
0	18953	11913.089520324643	1
0	18957	11913.249615593092	2
0	18958	11914.998451823804	1
0	18962	11915.785801005206	2
0	18963	11916.64562314159	1
0	18966	11918.168542507354	0
0	18970	11918.530400300424	1
0	18972	11918.985722029199	2
0	18974	11919.260803108762	3
0	18975	11919.833189358998	2
0	18978	11921.197637614485	1
0	18981	11922.82021666548	0
0	18990	11925.372516533758	1
0	18991	11926.803374446281	0
0	19000	11929.625480808629	1
0	19001	11929.803019770281	0
0	19010	11932.830841941047	1
0	19012	11933.79103128263	2
0	19013	11933.892988063497	1
0	19017	11934.309811958867	2
0	19018	11935.366449142163	1
0	19022	11936.492426305233	2
0	19023	11936.904131148857	1
0	19027	11937.127300320383	2
0	19028	11938.756924330917	1
0	19032	11938.896660905015	2
0	19033	11940.591301389512	1
0	19036	11941.860709770497	0
0	19050	11949.655382805469	1
0	19051	11950.423813109781	0
0	19055	11950.890320389792	1
0	19056	11951.910731290031	0
0	19065	11953.696555676554	1
0	19067	11954.454712800219	2
0	19068	11955.232629856247	1
0	19071	11956.859566850926	0
0	19090	11977.933366054868	1
0	19091	11979.261172516336	0
0	19105	11983.410142497438	1
0	19106	11984.451545766172	0
0	19110	11985.453117926289	1
0	19113	11986.146230093193	0
0	19125	11990.60541003383	1
0	19126	11992.015350101853	0
0	19130	11992.706023948518	1
0	19132	11993.380102867443	2
0	19133	11993.978601625713	1
0	19136	11995.349333956244	0
0	19140	11995.457714151706	1
0	19142	11995.76353484434	2
0	19145	11996.88387680907	1
0	19148	11998.398573341558	0
0	19155	12000.206985837525	1
0	19156	12001.225122023897	0
0	19160	12001.294388760406	1
0	19163	12002.871015236864	0
0	19167	12003.089696774549	1
0	19168	12004.118624476308	0
0	19175	12005.742808687286	1
0	19177	12005.896078618088	2
0	19180	12006.978524004074	1
0	19183	12008.828202231566	0
0	19197	12013.6457008651	1
0	19198	12013.691369855742	0
0	19212	12017.651669146609	1
0	19214	12018.072160544362	2
0	19215	12018.513491607795	1
0	19220	12019.998084248567	0
0	19230	12023.002298577444	1
0	19231	12024.551336074771	0
0	19240	12026.793636405829	1
0	19241	12027.474308296071	0
0	19250	12030.139184811442	1
0	19251	12030.333380258793	0
0	19265	12033.957713798886	1
0	19266	12035.59488577972	0
0	19305	12066.831114194085	1
0	19306	12067.080366937162	0
0	19310	12067.120481405167	1
0	19311	12068.446569477113	0
0	19315	12069.781938279316	1
0	19318	12070.039643755646	0
0	19345	12121.403801464657	1
0	19346	12121.828367367811	0
0	19350	12122.705543822922	1
0	19351	12123.455194445006	0
0	19365	12127.503410016237	1
0	19366	12128.717681514771	0
0	19380	12139.795895056824	1
0	19381	12139.954678804614	0
0	19385	12140.436830864992	1
0	19387	12140.496671022626	2
0	19388	12141.913477601484	1
0	19392	12142.392357867906	2
0	19393	12143.819438758307	1
0	19396	12145.332338085399	0
0	19400	12145.572851955367	1
0	19401	12146.632621086576	0
0	19405	12146.714652882986	1
0	19406	12148.388142313064	0
0	19410	12148.70110800108	1
0	19411	12149.855669331179	0
0	19445	12168.247366544607	1
0	19446	12169.075694540448	0
0	19465	12179.939162234609	1
0	19466	12180.969569620068	0
0	19475	12183.978347981878	1
0	19476	12184.772934514769	0
0	19480	12185.303609163613	1
0	19483	12186.108422292322	0
0	19495	12191.14233161507	1
0	19496	12191.602551398586	0
0	19505	12193.997206349735	1
0	19506	12194.657948192182	0
0	19512	12195.347771363603	1
0	19513	12196.126306474554	0
0	19517	12196.557805867234	1
0	19519	12197.34129572172	2
0	19520	12197.541403278309	1
0	19524	12197.617324814468	2
0	19526	12197.740444692076	3
0	19527	12199.469458838153	2
0	19530	12200.874239569131	1
0	19534	12200.928106153474	2
0	19535	12202.301742087651	1
0	19539	12203.855938516886	2
0	19540	12204.230783949207	1
0	19544	12205.380691347736	2
0	19545	12205.681897311817	1
0	19549	12206.297698158896	2
0	19550	12207.090955724168	1
0	19554	12207.17617390002	2
0	19555	12208.536921643067	1
0	19558	12209.897101679232	0
0	19562	12210.433947168204	1
0	19563	12211.203099001173	0
0	19575	12215.808867626241	1
0	19579	12216.691363154833	2
0	19580	12216.724715135593	1
0	19584	12218.106939839443	2
0	19585	12218.56399552149	1
0	19589	12219.23596680231	2
0	19590	12220.456668337595	1
0	19594	12220.640859085328	2
0	19595	12221.679482150425	1
0	19599	12222.422159160446	2
0	19600	12223.126141090666	1
0	19603	12224.736949473408	0
0	19607	12225.937216905864	1
0	19608	12226.265026170735	0
0	19612	12226.380963146806	1
0	19613	12227.648369883721	0
0	19620	12229.59541546154	1
0	19621	12230.89049820525	0
0	19625	12232.11096895151	1
0	19628	12232.809195274463	0
0	19635	12234.104265895113	1
0	19636	12235.911696161864	0
0	19660	12242.516002068958	1
0	19663	12243.90218456055	0
0	19700	12268.312827357352	1
0	19701	12268.323107468842	0
0	19707	12269.861906689105	1
0	19708	12270.256586111656	0
0	19715	12272.580001148817	1
0	19716	12273.375550890475	0
0	19720	12274.26460700939	1
0	19721	12274.961578956566	0
0	19725	12275.287269843486	1
0	19726	12276.688767264358	0
0	19730	12276.999026224586	1
0	19731	12278.478817808575	0
0	19810	12362.515039695308	1
0	19811	12363.979868133302	0
0	19815	12365.425862345066	1
0	19816	12365.953237915906	0
0	19820	12366.527643976282	1
0	19821	12367.940704235184	0
0	19825	12368.930416502976	1
0	19826	12369.766845634143	0
0	19830	12371.422641332894	1
0	19831	12371.541822764958	0
0	19840	12375.451212476492	1
0	19841	12376.704040940197	0
0	19855	12385.054733734169	1
0	19856	12385.087641423075	0
0	19862	12385.836559292909	1
0	19863	12386.736740602805	0
0	19867	12388.036908622642	1
0	19868	12388.161375864847	0
0	19872	12389.387813823668	1
0	19873	12389.589599843203	0
0	19885	12393.668532010741	1
0	19887	12394.863236049226	2
0	19888	12394.923338770963	1
0	19891	12396.533310134805	0
0	19895	12397.813455889989	1
0	19896	12397.89653326413	0
0	19905	12400.794680489395	1
0	19907	12401.106347845272	2
0	19908	12401.691376796089	1
0	19912	12401.717467256582	2
0	19916	12402.938201978072	3
0	19917	12403.383966154143	2
0	19921	12404.835950120001	3
0	19922	12405.274093715384	2
0	19925	12406.988345447651	1
0	19928	12408.647701480708	0
0	19932	12409.51770264382	1
0	19933	12410.636746589935	0
0	19940	12412.043990362465	1
0	19942	12412.468084261489	2
0	19943	12413.746845916009	1
0	19946	12415.571222019477	0
0	20015	12499.954163839902	1
0	20016	12500.981906480485	0
0	20020	12501.536571655151	1
0	20022	12502.734319450524	2
0	20023	12502.892121214749	1
0	20026	12504.78440470002	0
0	20030	12505.024472359185	1
0	20032	12505.815067740337	2
0	20033	12506.470392583081	1
0	20036	12508.064487352738	0
0	20040	12508.335775878411	1
0	20041	12509.580720583493	0
0	20055	12547.76012808428	1
0	20056	12548.176131410177	0
0	20060	12548.994656412526	1
0	20061	12549.564092334758	0
0	20080	12572.426370201908	1
0	20081	12573.318517335741	0
0	20085	12574.251960480809	1
0	20086	12574.81928880108	0
0	20090	12575.238111893492	1
0	20091	12576.76347797574	0
0	20095	12577.466133029221	1
0	20096	12578.335906428336	0
0	20125	12603.319893020225	1
0	20126	12603.703186780321	0
0	20130	12604.306212881568	1
0	20132	12605.038707462864	2
0	20133	12605.517813316653	1
0	20137	12605.575476418976	2
0	20139	12606.454989580854	3
0	20140	12606.965024373228	2
0	20144	12607.096984812913	3
0	20145	12608.494703660453	2
0	20149	12609.419018226023	3
0	20150	12610.018754442515	2
0	20153	12611.311852419296	1
0	20157	12612.024332936253	2
0	20158	12612.889832155699	1
0	20161	12614.746986388894	0
0	20215	12647.026984227314	1
0	20216	12647.603474442262	0
0	20220	12647.940508100497	1
0	20221	12649.011146023657	0
0	20245	12667.16015896823	1
0	20246	12667.686183057772	0
0	20250	12669.034921127141	1
0	20251	12669.504085931415	0
0	20275	12687.187253004272	1
0	20277	12687.265559947309	2
0	20278	12688.211548958163	1
0	20282	12688.21860083399	2
0	20283	12690.119473648633	1
0	20287	12690.339126916653	2
0	20288	12691.325497312847	1
0	20291	12692.662022421326	0
0	20300	12694.659952750171	1
0	20304	12695.379052291101	2
0	20305	12696.139147725047	1
0	20308	12697.438946140089	0
0	20312	12698.063004012408	1
0	20313	12698.793236197994	0
0	20320	12700.515640799446	1
0	20321	12701.39814080903	0
0	20350	12717.847696941168	1
0	20351	12719.031565007065	0
0	20355	12719.561473572949	1
0	20356	12720.774180826042	0
0	20360	12721.802937695448	1
0	20361	12721.982255217489	0
0	20390	12736.989779310261	1
0	20391	12738.511683378128	0
0	20410	12743.219424782292	1
0	20412	12744.322383512943	2
0	20413	12744.335191061554	1
0	20416	12745.722361276691	0
0	20420	12747.077597325712	1
0	20421	12747.464897801747	0
0	20430	12750.814169149937	1
0	20432	12751.052238140297	2
0	20433	12751.309076876316	1
0	20436	12752.510529806029	0
0	20445	12755.829800315502	1
0	20446	12756.280158033687	0
0	20465	12765.91626736262	1
0	20466	12766.84664345589	0
0	20477	12770.709454063464	1
0	20478	12771.657535359919	0
0	20487	12773.807754886	1
0	20488	12775.584793075271	0
0	20495	12776.922726068508	1
0	20496	12778.335617388323	0
0	20502	12779.402398531266	1
0	20503	12779.550020333104	0
0	20507	12779.928914080009	1
0	20508	12780.824842557967	0
0	20512	12780.894777701187	1
0	20515	12782.189946114742	0
0	20522	12784.820607070426	1
0	20523	12785.397640265622	0
0	20530	12787.742673928738	1
0	20532	12788.402303773426	2
0	20533	12788.699627829068	1
0	20538	12789.919160218076	0
0	20542	12790.385160724229	1
0	20544	12791.288499983767	2
0	20545	12791.302675720775	1
0	20548	12792.795532312529	0
0	20555	12794.635767700565	1
0	20556	12795.861097915755	0
0	20560	12796.120335382124	1
0	20561	12797.225272810744	0
0	20572	12799.412678654478	1
0	20573	12800.406642887282	0
0	20577	12800.538054689043	1
0	20581	12800.798348728989	2
0	20583	12801.492872558885	3
0	20584	12801.8586320418	2
0	20587	12803.404035979237	1
0	20590	12805.231368069078	0
0	20594	12805.57555067546	1
0	20595	12806.817383505504	0
0	20599	12807.202846076141	1
0	20600	12808.610505689967	0
0	20604	12808.638344957063	1
0	20606	12810.027289414013	2
0	20607	12810.438609876956	1
0	20611	12811.735020862228	2
0	20612	12812.364801404539	1
0	20616	12812.89627151976	2
0	20619	12813.818404927577	1
0	20623	12814.884359914835	2
0	20624	12815.314942401189	1
0	20628	12815.459544893916	2
0	20629	12817.004047021184	1
0	20633	12817.431707122217	2
0	20634	12818.625206514921	1
0	20637	12820.445784561437	0
0	20641	12820.575275127856	1
0	20642	12822.166835586455	0
0	20646	12822.35576449557	1
0	20647	12823.508149656754	0
0	20651	12824.612345009448	1
0	20652	12824.8791780633	0
0	20659	12826.617724019483	1
0	20660	12827.674361275982	0
0	20670	12830.911257023304	1
0	20672	12832.16269232671	2
0	20673	12832.240377673608	1
0	20676	12833.914434731108	0
0	20680	12834.047278253794	1
0	20681	12835.451847168905	0
0	20685	12836.151323258217	1
0	20686	12837.31069870471	0
0	20702	12843.905459482667	1
0	20703	12844.827362721778	0
0	20707	12845.727911025629	1
0	20708	12846.399918037645	0
0	20717	12849.587757441571	1
0	20718	12849.76368545293	0
0	20740	12858.324994596038	1
0	20741	12859.665977878163	0
0	20775	12884.12760532445	1
0	20776	12884.905652416348	0
0	20792	12888.894971159685	1
0	20793	12889.173539960049	0
0	20825	12904.163960709964	1
0	20826	12905.535375415564	0
0	20830	12906.741689034314	1
0	20831	12906.796096634336	0
0	20860	12934.949095553001	1
0	20861	12936.281465101843	0
0	20865	12937.189763597219	1
0	20866	12938.24617689759	0
0	20910	12974.736228295443	1
0	20912	12975.294797531	2
0	20913	12976.270878544574	1
0	20916	12977.922763092381	0
0	20930	12986.429369273913	1
0	20931	12986.89971542027	0
0	20985	13043.594658320842	1
0	20986	13043.789935897476	0
0	20990	13044.964805572188	1
0	20991	13045.256391911021	0
0	20995	13045.274963408599	1
0	20996	13046.836703657916	0
0	21005	13049.974230262788	1
0	21006	13051.006275201374	0
0	21010	13052.732907917483	1
0	21011	13052.978945406498	0
0	21035	13083.404616229852	1
0	21036	13083.871455532531	0
0	21070	13117.842906907495	1
0	21071	13119.169465304489	0
0	21090	13150.406566814531	1
0	21092	13150.425722467479	2
0	21093	13151.875626570676	1
0	21096	13153.538545765859	0
0	21105	13156.523537324537	1
0	21106	13156.625915818839	0
0	21110	13156.947412019786	1
0	21111	13158.135221362105	0
0	21115	13158.431726840183	1
0	21116	13159.39100526887	0
0	21125	13161.665936682667	1
0	21127	13162.494712669284	2
0	21128	13163.442437884963	1
0	21131	13164.78318047431	0
0	21140	13170.276165378971	1
0	21142	13170.851614672449	2
0	21143	13171.000643770724	1
0	21146	13172.979072917208	0
0	21195	13210.817324415724	1
0	21196	13211.801875528233	0
0	21200	13212.236432917093	1
0	21201	13213.124966388294	0
0	21222	13226.88628171784	1
0	21223	13227.461807071511	0
0	21227	13227.651696493728	1
0	21228	13228.868896043022	0
0	21235	13230.92493531106	1
0	21236	13231.470383612346	0
0	21275	13257.02049724165	1
0	21276	13257.91485819056	0
0	21280	13258.389002287707	1
0	21282	13258.910426940361	2
0	21284	13259.290844633626	3
0	21285	13259.805158903294	2
0	21289	13260.458646751413	3
0	21290	13261.676235446551	2
0	21294	13262.317665924555	3
0	21295	13263.443734420308	2
0	21298	13265.414401520447	1
0	21302	13266.132481120848	2
0	21303	13267.369388727316	1
0	21307	13267.597926933199	2
0	21308	13268.991680161686	1
0	21311	13270.422460545817	0
0	21340	13303.587344059037	1
0	21342	13304.109178224574	2
0	21343	13304.817417285424	1
0	21346	13306.28718345074	0
0	21350	13307.189135342402	1
0	21351	13307.569031580184	0
0	21355	13308.050453641201	1
0	21356	13309.169696345572	0
0	21360	13310.277111341347	1
0	21361	13310.675991349873	0
0	21390	13337.656149545449	1
0	21391	13338.982634641115	0
0	21400	13340.727822538961	1
0	21401	13341.737540191855	0
0	21425	13357.300640008433	1
0	21426	13357.922010591459	0
0	21435	13363.509453881675	1
0	21436	13363.654708971539	0
0	21440	13364.92805180544	1
0	21441	13365.617824520627	0
0	21445	13366.637879188242	1
0	21447	13366.774158135109	2
0	21448	13367.241815403001	1
0	21452	13367.546459097214	2
0	21453	13368.639224469931	1
0	21457	13369.672609142713	2
0	21459	13370.330340872995	3
0	21460	13370.460608907686	2
0	21463	13371.952062967503	1
0	21466	13373.320641560005	0
0	21475	13376.691822551224	1
0	21476	13377.006511595958	0
0	21495	13384.667145269268	1
0	21497	13386.198485030728	2
0	21498	13386.472115501991	1
0	21501	13387.784602577469	0
0	21507	13388.470893208697	1
0	21509	13388.857946752072	2
0	21510	13389.355004909678	1
0	21515	13390.770446839227	0
0	21522	13392.682113148145	1
0	21523	13393.469043237201	0
0	21540	13410.874390676041	1
0	21541	13410.880988980094	0
0	21550	13412.977592576562	1
0	21551	13414.866976599183	0
0	21557	13416.306198488883	1
0	21558	13416.551023575079	0
0	21565	13419.34728952674	1
0	21566	13420.193432781261	0
0	21575	13421.813862484847	1
0	21576	13423.27129605503	0
0	21590	13431.683711440995	1
0	21591	13431.86959075442	0
0	21615	13458.058678637474	1
0	21616	13458.177415889653	0
0	21665	13516.019653786594	1
0	21667	13516.088195687908	2
0	21668	13516.95650093276	1
0	21671	13518.930740853585	0
0	21680	13521.024102051907	1
0	21681	13522.751523095741	0
0	21687	13523.566366514613	1
0	21688	13523.999591745808	0
0	21692	13524.486371704754	1
0	21693	13525.208960939198	0
0	21697	13525.264711902159	1
0	21699	13525.851015767501	2
0	21700	13527.110264926217	1
0	21704	13527.616252025819	2
0	21706	13528.166814088438	3
0	21707	13528.445802940987	2
0	21710	13530.196234486252	1
0	21714	13530.844479330423	2
0	21715	13531.926411641389	1
0	21719	13532.042217480828	2
0	21720	13533.825472413376	1
0	21724	13535.147592445343	2
0	21725	13535.519474898838	1
0	21728	13536.856764307805	0
0	21732	13537.454205157882	1
0	21733	13538.701199723036	0
0	21737	13539.241886826348	1
0	21739	13539.573708279101	2
0	21741	13539.897655798304	3
0	21742	13540.641230564379	2
0	21745	13542.220018187166	1
0	21748	13543.930698317104	0
0	21755	13546.27723266526	1
0	21756	13546.746785494872	0
0	21790	13577.379761536979	1
0	21791	13578.402745556476	0
0	21812	13587.694641844431	1
0	21813	13587.941987746685	0
0	21817	13588.046645014454	1
0	21818	13589.51588356915	0
0	21822	13589.556118659437	1
0	21823	13591.38408797673	0
0	21827	13591.851397346235	1
0	21828	13592.861618518932	0
0	21832	13593.429875844434	1
0	21833	13594.551776062986	0
0	21837	13595.538574854245	1
0	21838	13595.884887907757	0
0	21842	13596.732596072887	1
0	21843	13597.616689186646	0
0	21847	13598.000505505471	1
0	21848	13599.466509988075	0
0	21852	13600.638743973128	1
0	21853	13601.065591965159	0
0	21865	13605.86017501437	1
0	21866	13606.866524126212	0
0	21890	13615.109145057034	1
0	21891	13616.481995443027	0
0	21915	13628.249171597561	1
0	21917	13628.278925197757	2
0	21920	13630.049874941468	1
0	21923	13631.548462616116	0
0	21927	13632.242194456512	1
0	21928	13633.191902620368	0
0	21932	13633.584823936934	1
0	21933	13634.576159245543	0
0	21937	13634.726438959263	1
0	21939	13635.118580484456	2
0	21940	13636.273742311097	1
0	21943	13637.931965550243	0
0	21947	13638.985711028973	1
0	21948	13639.517146289556	0
0	21952	13640.487644358823	1
0	21953	13641.246543094723	0
0	21957	13642.362765680366	1
0	21958	13643.235723073243	0
0	21962	13643.364967456356	1
0	21964	13644.248381442731	2
0	21965	13644.513606055847	1
0	21968	13646.153589643373	0
0	21972	13647.882165607374	1
0	21973	13648.006466448515	0
0	21980	13650.312832958247	1
0	21982	13650.702324717605	2
0	21983	13651.276220409407	1
0	21986	13652.77038452646	0
0	21990	13653.672015160916	1
0	21992	13653.773374274068	2
0	21993	13654.470078087433	1
0	21996	13656.115374534598	0
0	22000	13657.302608180644	1
0	22001	13657.35726305472	0
0	22005	13657.429088964555	1
0	22006	13659.091711396373	0
0	22015	13667.899298007307	1
0	22016	13668.645771988709	0
0	22020	13669.88308385616	1
0	22021	13670.451916001779	0
0	22025	13671.686338379081	1
0	22026	13672.153951039393	0
0	22040	13677.143408158847	1
0	22041	13677.651779883792	0
0	22085	13712.759848470687	1
0	22086	13714.157581569522	0
0	22095	13718.197986526089	1
0	22097	13718.73031024216	2
0	22098	13719.590633863322	1
0	22102	13720.653983813042	2
0	22103	13721.54285518594	1
0	22106	13722.941221426725	0
0	22115	13726.133030613517	1
0	22116	13726.841044783345	0
0	22125	13729.576611822738	1
0	22126	13730.976133649429	0
0	22130	13731.659972794175	1
0	22131	13732.214608267514	0
0	22140	13734.512175465713	1
0	22141	13734.972484203061	0
0	22195	13780.998703558456	1
0	22197	13782.313819456845	2
0	22198	13782.440538347384	1
0	22203	13784.279427622316	0
0	22235	13809.036932756999	1
0	22236	13809.374728447063	0
0	22240	13810.123911665954	1
0	22243	13811.155028230747	0
0	22247	13812.382920305902	1
0	22248	13812.942909808693	0
0	22252	13813.964829126486	1
0	22253	13814.460120190171	0
0	22257	13815.073733885692	1
0	22259	13815.740619775332	2
0	22260	13816.211622257208	1
0	22263	13818.174413298307	0
0	22325	13876.062685959224	1
0	22326	13877.15642795101	0
0	22340	13881.614273738293	1
0	22341	13882.926455778028	0
0	22345	13883.874061637519	1
0	22346	13884.307109991978	0
0	22355	13889.185647527677	1
0	22356	13889.227617083286	0
0	22360	13889.252549693603	1
0	22361	13890.976074839738	0
0	22375	13898.462888607974	1
0	22376	13899.269057467921	0
0	22380	13900.869686715882	1
0	22381	13901.048702396235	0
0	22415	13937.457435094381	1
0	22416	13937.676928764901	0
0	22420	13937.893133732371	1
0	22421	13939.142686797998	0
0	22425	13939.255552342892	1
0	22426	13941.067041149496	0
0	22455	13955.698888902584	1
0	22456	13956.5550620614	0
0	22502	13977.723015034207	1
0	22503	13979.193930881248	0
0	22510	13980.596802189367	1
0	22512	13980.859775621365	2
0	22513	13982.292431043611	1
0	22518	13983.502145615184	0
0	22535	13991.014141960615	1
0	22536	13991.578749813009	0
0	22540	13992.910058631887	1
0	22541	13993.425445044469	0
0	22545	13994.168444411762	1
0	22546	13995.033123768736	0
0	22570	14008.537695742182	1
0	22571	14008.545478073332	0
0	22580	14012.082895908323	1
0	22581	14013.150087288241	0
0	22585	14014.60277387045	1
0	22586	14015.073752432908	0
0	22595	14022.054034936122	1
0	22597	14022.479855762338	2
0	22598	14023.060847384043	1
0	22601	14024.939557564564	0
0	22610	14027.631687195753	1
0	22611	14028.981767023392	0
0	22615	14029.377983977703	1
0	22617	14029.530714641853	2
0	22618	14030.705714426041	1
0	22622	14031.269196057601	2
0	22623	14032.432928694263	1
0	22626	14034.175901701525	0
0	22630	14036.040953208922	1
0	22631	14036.151621380486	0
0	22635	14036.458731922216	1
0	22637	14036.461726401479	2
0	22638	14038.143725961298	1
0	22641	14040.059944064208	0
0	22645	14040.27658313717	1
0	22647	14040.354960756548	2
0	22649	14040.695282309506	3
0	22650	14041.351618798488	2
0	22653	14043.315707444252	1
0	22657	14044.549249395394	2
0	22658	14045.162719045991	1
0	22661	14046.680713717492	0
0	22705	14073.411646338837	1
0	22706	14074.879530796393	0
0	22720	14079.319823284181	1
0	22722	14079.358487084606	2
0	22723	14080.678490823346	1
0	22728	14082.436683663751	0
0	22737	14085.632804526378	1
0	22738	14085.635743404391	0
0	22745	14087.421058564794	1
0	22746	14088.513323245781	0
0	22750	14089.729612572681	1
0	22751	14089.835312224018	0
0	22770	14103.087013792029	1
0	22771	14103.475551882662	0
0	22775	14103.635721982876	1
0	22776	14105.098674309157	0
0	22790	14110.594933321557	1
0	22791	14111.575943287891	0
0	22795	14111.877435928951	1
0	22796	14113.371953255553	0
0	22855	14152.214709125248	1
0	22856	14153.315755163291	0
0	22910	14191.163599524021	1
0	22911	14191.439176190359	0
0	22950	14210.915812982036	1
0	22951	14211.030711563017	0
0	22995	14246.602393894171	1
0	22996	14248.169992231377	0
0	23020	14268.070710503428	1
0	23021	14268.302662685266	0
0	23045	14298.896652192074	1
0	23046	14299.799804110838	0
0	23060	14315.420263479333	1
0	23061	14315.852007328521	0
0	23120	14404.191881223509	1
0	23121	14404.957149206613	0
0	23125	14406.129362035691	1
0	23126	14406.956883113784	0
0	23180	14453.82511618486	1
0	23181	14453.843443180721	0
0	23185	14454.472981059515	1
0	23187	14454.91656842778	2
0	23188	14455.082712846908	1
0	23192	14456.18746361536	2
0	23193	14456.590381789307	1
0	23196	14458.324520953844	0
0	23200	14459.106697546584	1
0	23201	14460.014815666626	0
0	23205	14460.114475339649	1
0	23207	14460.558692524391	2
0	23208	14461.219323280926	1
0	23212	14462.201712307233	2
0	23213	14462.832461933146	1
0	23216	14464.618449154037	0
0	23225	14466.996738429772	1
0	23226	14468.292356480782	0
0	23260	14484.334511736745	1
0	23262	14484.800081959921	2
0	23263	14485.245633681163	1
0	23266	14486.818828048974	0
0	23270	14487.495974268517	1
0	23271	14488.136809226542	0
0	23300	14512.498679641848	1
0	23301	14513.493673370427	0
0	23335	14551.361935224833	1
0	23336	14552.99505589942	0
0	23345	14556.829858501508	1
0	23346	14556.966095798296	0
0	23355	14559.693203434644	1
0	23357	14560.241164197876	2
0	23358	14560.77908368688	1
0	23363	14562.622564771957	0
0	23380	14580.601891020628	1
0	23381	14581.970262603524	0
0	23385	14582.522679250632	1
0	23386	14583.629169599402	0
0	23390	14584.175115664701	1
0	23392	14584.406499270157	2
0	23393	14585.323251986566	1
0	23399	14585.355231218125	2
0	23400	14586.944212929222	1
0	23404	14587.689290151666	2
0	23406	14588.489092025322	3
0	23407	14588.63920076831	2
0	23410	14590.485359199594	1
0	23414	14591.402433081061	2
0	23416	14591.860519617	3
0	23417	14591.987638476554	2
0	23421	14592.559984650063	3
0	23422	14593.742872075613	2
0	23425	14594.953474203932	1
0	23429	14595.933713263227	2
0	23431	14596.827670182874	3
0	23432	14596.8408995588	2
0	23435	14598.620666621315	1
0	23438	14600.368503551247	0
0	23442	14600.666539833521	1
0	23443	14601.695949307146	0
0	23455	14606.673655240598	1
0	23456	14606.920976281339	0
0	23460	14608.119635891619	1
0	23461	14608.363589629145	0
0	23467	14609.892745304204	1
0	23468	14609.996859993959	0
0	23472	14611.082457407344	1
0	23473	14611.439659759017	0
0	23477	14612.445102476845	1
0	23478	14613.300788595142	0
0	23482	14613.57357998791	1
0	23483	14614.734487239072	0
0	23487	14614.768909703421	1
0	23488	14616.478232834102	0
0	23555	14683.432205563307	1
0	23556	14684.932388565617	0
0	23560	14685.282317075576	1
0	23562	14686.228297694409	2
0	23563	14686.302403115968	1
0	23567	14686.78252404536	2
0	23568	14687.87374778569	1
0	23571	14689.87090208784	0
0	23575	14690.041146467745	1
0	23577	14690.256799611693	2
0	23578	14691.273478935028	1
0	23582	14691.830195510479	2
0	23585	14692.657219554784	1
0	23589	14693.881172929238	2
0	23590	14694.540986340607	1
0	23593	14696.293888245823	0
0	23597	14697.435334965355	1
0	23598	14697.845282546172	0
0	23602	14699.604889015479	1
0	23603	14699.736098113397	0
0	23607	14701.321566297824	1
0	23608	14701.696351899134	0
0	23620	14712.705408264397	1
0	23621	14712.886664196854	0
0	23625	14714.424342861342	1
0	23626	14714.846174608921	0
0	23630	14714.847513257289	1
0	23632	14715.107891994946	2
0	23633	14716.551717878138	1
0	23636	14717.825119419401	0
0	23640	14718.552848775945	1
0	23643	14719.461189631564	0
0	23647	14720.263162539183	1
0	23648	14721.336064514337	0
0	23652	14721.992469456854	1
0	23654	14722.02549536884	2
0	23656	14722.294305241229	3
0	23657	14723.124588147743	2
0	23660	14724.431261500722	1
0	23664	14725.194712417673	2
0	23665	14726.292248730181	1
0	23668	14727.739008001058	0
0	23672	14728.055520096127	1
0	23673	14729.659184618487	0
0	23677	14729.722284505915	1
0	23678	14731.290982103913	0
0	23682	14732.351245360282	1
0	23686	14732.527607756618	2
0	23687	14733.075420904725	1
0	23691	14734.224733749009	2
0	23692	14734.857745807625	1
0	23696	14735.50441069939	2
0	23698	14735.890042964364	3
0	23699	14736.145180227615	2
0	23702	14737.876590374306	1
0	23705	14739.802436411575	0
0	23712	14742.892631396943	1
0	23713	14742.994057420276	0
0	23740	14755.425676468975	1
0	23741	14755.526959264704	0
0	23810	14804.610387469842	1
0	23811	14805.113043249182	0
0	23820	14807.370140593135	1
0	23821	14807.940374618924	0
0	23825	14808.856271035457	1
0	23826	14809.715195963687	0
0	23830	14810.355398379428	1
0	23831	14811.047046812034	0
0	23835	14812.890628638429	1
0	23836	14812.957212137214	0
0	23855	14828.383749853194	1
0	23856	14829.530673193855	0
0	23880	14858.939242711856	1
0	23881	14860.394983003522	0
0	23890	14862.467868729881	1
0	23891	14864.097912992584	0
0	23910	14878.250177462983	1
0	23911	14879.01923041628	0
0	23920	14883.471473060307	1
0	23921	14885.075515786681	0
0	23925	14885.528700660128	1
0	23927	14886.039510782454	2
0	23928	14886.487670011941	1
0	23931	14888.222121056851	0
0	23935	14888.408469448336	1
0	23937	14889.117503813264	2
0	23938	14889.785803865392	1
0	23942	14890.473972699448	2
0	23943	14891.382644964505	1
0	23947	14892.173226496481	2
0	23948	14893.359430743318	1
0	23951	14895.131077528868	0
0	23955	14895.256407053924	1
0	23956	14896.780997298967	0
0	23970	14909.356840206474	1
0	23972	14909.583460799363	2
0	23973	14910.642747431212	1
0	23977	14910.9910405218	2
0	23978	14911.968487031908	1
0	23981	14913.402231213228	0
0	23985	14913.969857973151	1
0	23986	14915.062419608385	0
0	24000	14922.69157509813	1
0	24002	14923.480452354575	2
0	24003	14924.182838033949	1
0	24007	14925.79325813231	2
0	24008	14925.938504490321	1
0	24012	14926.367819911502	2
0	24013	14927.900842616958	1
0	24017	14929.370263671878	2
0	24018	14929.498964692344	1
0	24022	14930.315194890552	2
0	24024	14930.864088595625	3
0	24025	14931.060901771736	2
0	24028	14932.473981631611	1
0	24032	14932.91878022362	2
0	24035	14933.996119118359	1
0	24038	14935.687571631994	0
0	24042	14935.821697348552	1
0	24043	14937.303398755442	0
0	24050	14939.433877957281	1
0	24053	14940.577766761061	0
0	24057	14942.30303062982	1
0	24058	14942.555627049197	0
0	24130	14988.932861012159	1
0	24131	14988.951570895872	0
0	24142	14990.92034711542	1
0	24143	14992.098346588387	0
0	24170	15041.949403307744	1
0	24171	15043.069535646279	0
0	24185	15057.478122174377	1
0	24186	15057.744523037421	0
0	24190	15058.647879077958	1
0	24191	15059.194088779213	0
0	24210	15069.045732601362	1
0	24211	15070.477790496599	0
0	24230	15077.032326762587	1
0	24231	15077.822768773475	0
0	24240	15079.080105540663	1
0	24241	15080.9677501883	0
0	24255	15093.156115334752	1
0	24256	15093.94889348012	0
0	24260	15094.847128032666	1
0	24262	15095.053738934401	2
0	24263	15095.164112464269	1
0	24267	15095.401839042424	2
0	24268	15096.810814582114	1
0	24271	15098.299343955633	0
0	24275	15098.423759429879	1
0	24276	15099.555516517465	0
0	24305	15114.246899171303	1
0	24306	15114.988012198456	0
0	24350	15139.301036775933	1
0	24351	15140.414260178295	0
0	24385	15169.12445351132	1
0	24386	15169.743815925112	0
0	24390	15170.372853884692	1
0	24391	15171.262626219494	0
0	24395	15171.963315763242	1
0	24396	15172.729806958465	0
0	24400	15173.303206448026	1
0	24401	15174.677413434489	0
0	24430	15188.87039584229	1
0	24431	15190.167998574564	0
0	24447	15193.731582380054	1
0	24448	15194.237797994988	0
0	24455	15195.94133832689	1
0	24456	15196.993367619516	0
0	24467	15198.769199810978	1
0	24468	15199.930733420217	0
0	24482	15203.849511561947	1
0	24484	15204.347577509924	2
0	24485	15204.540635619389	1
0	24488	15205.95129969612	0
0	24492	15206.101347953684	1
0	24494	15206.215101058384	2
0	24496	15206.486024290534	3
0	24500	15207.573137192608	4
0	24501	15207.780135761092	3
0	24504	15209.225401202107	2
0	24507	15210.967709701026	1
0	24512	15212.726302661823	0
0	24531	15218.802672837176	1
0	24532	15219.751741935762	0
0	24536	15221.312441898976	1
0	24537	15221.510887053499	0
0	24541	15222.798856372518	1
0	24542	15223.422299145611	0
0	24551	15225.838868166837	1
0	24552	15226.486320925766	0
0	24564	15231.108157175833	1
0	24565	15231.159951552452	0
0	24569	15232.373206539205	1
0	24572	15232.491600788461	0
0	24579	15235.500479205186	1
0	24580	15235.981267711597	0
0	24584	15236.18996157234	1
0	24585	15237.9471048788	0
0	24589	15238.053556618806	1
0	24590	15239.856309511589	0
0	24597	15242.528862159679	1
0	24598	15243.626292327868	0
0	24640	15274.100059145262	1
0	24641	15274.467222473265	0
0	24650	15281.657540570193	1
0	24651	15282.867697075637	0
0	24655	15283.174392169829	1
0	24656	15284.578861660393	0
0	24690	15306.599727355193	1
0	24691	15307.612467665299	0
0	24815	15446.06883410462	1
0	24816	15447.487962342761	0
0	24825	15452.36667886586	1
0	24826	15453.102067294073	0
0	24835	15456.984423301402	1
0	24836	15457.015214448501	0
0	24850	15462.369183693937	1
0	24851	15463.695156257992	0
0	24872	15474.450540639927	1
0	24873	15474.801678983436	0
0	24895	15491.246622289315	1
0	24896	15492.533490388471	0
0	24905	15493.862453680008	1
0	24907	15495.233571562268	2
0	24908	15495.370017625953	1
0	24912	15497.34929039727	2
0	24913	15497.365981751311	1
0	24916	15498.91077600364	0
0	24925	15520.321658680773	1
0	24926	15520.467198802982	0
0	24930	15521.16435863039	1
0	24931	15521.972861590688	0
0	24935	15522.014967222368	1
0	24936	15523.821983632152	0
0	24950	15546.497696620908	1
0	24951	15547.813311600265	0
0	24975	15597.076894434433	1
0	24976	15597.306247617947	0
0	25025	15650.322214734637	1
0	25026	15651.215824244983	0
0	25035	15654.918897464704	1
0	25036	15656.055118521391	0
0	25065	15666.638209938623	1
0	25066	15667.69577397982	0
0	25085	15685.530977610799	1
0	25086	15686.132060350838	0
0	25095	15689.388942880698	1
0	25096	15689.690448014982	0
0	25110	15698.630553950296	1
0	25111	15699.50954419697	0
0	25247	15783.532865023032	1
0	25248	15784.183424673294	0
0	25260	15787.74749028864	1
0	25262	15787.969145794764	2
0	25265	15788.672528101941	1
0	25268	15790.54186898942	0
0	25272	15790.751265816812	1
0	25273	15792.280220506963	0
0	25277	15794.002252992942	1
0	25278	15794.014674193103	0
0	25285	15796.640436787897	1
0	25286	15797.838965892297	0
0	25295	15802.681563569172	1
0	25296	15803.638233409832	0
0	25300	15803.942442643232	1
0	25301	15804.915890125754	0
0	25320	15812.13620101249	1
0	25321	15812.725690510692	0
0	25330	15816.975045821797	1
0	25331	15818.049619877327	0
0	25345	15821.509792555613	1
0	25348	15822.980361543937	0
0	25352	15823.717086782248	1
0	25353	15824.803145464292	0
0	25380	15842.753107070181	1
0	25381	15843.63313303668	0
0	25400	15850.643997747451	1
0	25402	15851.204075623294	2
0	25403	15851.661700962321	1
0	25407	15851.67248514623	2
0	25409	15852.359243859916	3
0	25410	15853.476409709291	2
0	25414	15855.006933853101	3
0	25415	15855.201529021771	2
0	25419	15856.49960016341	3
0	25420	15856.729195484356	2
0	25423	15858.335345294722	1
0	25426	15859.588556115166	0
0	25445	15865.901682317737	1
0	25446	15866.790106338714	0
0	25460	15872.333425395083	1
0	25461	15872.428527218903	0
0	25465	15874.159460360135	1
0	25466	15874.231800220961	0
0	25475	15875.993760634217	1
0	25476	15877.133851775209	0
0	25482	15878.937337945999	1
0	25483	15878.945178956593	0
0	25490	15880.798316546833	1
0	25492	15880.828090114051	2
0	25494	15880.93403106818	3
0	25495	15881.567276055048	2
0	25498	15883.43330757046	1
0	25503	15885.125814647468	0
0	25507	15886.50431073657	1
0	25508	15886.768812920952	0
0	25512	15887.286095249353	1
0	25513	15888.394108704718	0
0	25520	15889.956371154767	1
0	25521	15891.27882499961	0
0	25555	15923.064356070023	1
0	25556	15923.650776474388	0
0	25560	15924.364898446113	1
0	25561	15925.230160073587	0
0	25565	15926.436962807746	1
0	25566	15926.91252427327	0
0	25570	15927.252115467732	1
0	25571	15928.174072340527	0
0	25575	15928.276559898216	1
0	25576	15929.432054039115	0
0	25585	15931.095430669839	1
0	25586	15932.985059288728	0
0	25592	15934.508655489056	1
0	25593	15934.627904045421	0
0	25597	15935.332420946093	1
0	25598	15936.182110145341	0
0	25605	15938.154707629229	1
0	25606	15938.85913130569	0
0	25610	15939.693226517823	1
0	25611	15940.205608482312	0
0	25635	15975.140862476117	1
0	25636	15976.760984249938	0
0	25670	16008.218246317634	1
0	25671	16009.381701662455	0
0	25680	16011.701658558542	1
0	25681	16012.532436504367	0
0	25685	16014.068779324167	1
0	25686	16014.280624491501	0
0	25690	16015.353810376815	1
0	25691	16015.699617683295	0
0	25695	16016.080009125919	1
0	25696	16017.151740839857	0
0	25715	16025.762160703998	1
0	25717	16026.321137517025	2
0	25718	16026.723082089217	1
0	25721	16028.241402539217	0
0	25740	16034.192305561891	1
0	25741	16034.371522012045	0
0	25745	16035.70371168937	1
0	25746	16036.122097809305	0
0	25755	16042.350227857941	1
0	25756	16043.167511211653	0
0	25765	16046.665800009365	1
0	25766	16046.964679547052	0
0	25790	16079.999105475856	1
0	25791	16080.358897862934	0
0	25800	16085.563233837131	1
0	25801	16085.977631486553	0
0	25825	16098.268111205146	1
0	25826	16099.046191738511	0
0	25880	16146.61668224449	1
0	25881	16148.076733352611	0
0	25885	16148.160872400243	1
0	25886	16149.612834943453	0
0	25912	16164.600245387181	1
0	25913	16165.229161763489	0
0	25917	16165.453210636412	1
0	25918	16166.582241744473	0
0	25935	16173.060502802933	1
0	25936	16174.520100812236	0
0	25947	16177.030816112548	1
0	25948	16177.63506533652	0
0	25957	16180.793763288651	1
0	25958	16181.000128723676	0
0	25965	16182.94635436173	1
0	25966	16184.208099864232	0
0	25970	16184.665382378753	1
0	25972	16185.783619373866	2
0	25973	16186.18375632483	1
0	25977	16186.489831684795	2
0	25978	16187.824157226826	1
0	25981	16189.604550800468	0
0	25985	16190.708604474609	1
0	25987	16190.807590419609	2
0	25988	16191.032882307652	1
0	25992	16192.26585379761	2
0	25993	16192.386862757798	1
0	25997	16192.960789753331	2
0	25998	16193.993408387523	1
0	26002	16194.530742797041	2
0	26004	16194.963727719742	3
0	26006	16195.341449904982	4
0	26007	16195.619752175171	3
0	26012	16197.585302463356	2
0	26016	16197.984147338409	3
0	26017	16198.889962974187	2
0	26021	16199.699986670313	3
0	26022	16200.793384784084	2
0	26025	16202.420479689535	1
0	26029	16202.919599517862	2
0	26030	16204.332787797783	1
0	26034	16204.626065718516	2
0	26035	16205.655256882679	1
0	26041	16206.00854976073	2
0	26043	16206.899648300837	3
0	26044	16207.168842330013	2
0	26047	16208.767458174747	1
0	26051	16209.2763138151	2
0	26052	16210.295283226666	1
0	26055	16212.104764632319	0
0	26059	16213.296746735156	1
0	26060	16213.6299731262	0
0	26120	16253.75690181136	1
0	26121	16254.472722394419	0
0	26150	16274.306417768084	1
0	26151	16275.648963941323	0
0	26160	16277.957049806966	1
0	26161	16279.29837786926	0
0	26165	16279.428959539596	1
0	26166	16280.536862667446	0
0	26200	16319.226457726489	1
0	26201	16320.58159924648	0
0	26220	16328.659280142907	1
0	26221	16329.939599231236	0
0	26225	16331.563764214581	1
0	26226	16331.583643567913	0
0	26275	16380.47896507125	1
0	26276	16381.720581202309	0
0	26280	16381.873841219141	1
0	26281	16383.389672022785	0
0	26295	16391.789146263295	1
0	26296	16391.859209611557	0
0	26335	16436.446264783814	1
0	26336	16438.07631599609	0
0	26340	16439.021033567516	1
0	26341	16439.356245271901	0
0	26360	16447.087417366405	1
0	26361	16447.184828908861	0
0	26430	16508.619863579586	1
0	26431	16508.721953581116	0
0	26470	16528.132348212248	1
0	26471	16529.166136793616	0
0	26480	16532.607389841829	1
0	26481	16533.019908721094	0
0	26485	16533.18373943106	1
0	26487	16534.127494217784	2
0	26489	16534.36839315642	3
0	26490	16534.853440102098	2
0	26493	16536.517818608602	1
0	26496	16537.87152022673	0
0	26505	16540.456768034517	1
0	26506	16542.375964780791	0
0	26520	16557.83062324342	1
0	26521	16558.943645250693	0
0	26525	16559.141204950435	1
0	26526	16560.485228749819	0
0	26530	16562.014547226093	1
0	26531	16562.355195831589	0
0	26540	16565.397031775744	1
0	26541	16565.788958662611	0
0	26580	16615.362439566093	1
0	26582	16616.00643074383	2
0	26583	16616.483881525497	1
0	26587	16616.767530472571	2
0	26588	16618.404231709789	1
0	26592	16619.554928274922	2
0	26593	16620.168211243849	1
0	26596	16621.796660907555	0
0	26605	16623.38448278263	1
0	26606	16625.286065088478	0
0	26635	16662.691912197806	1
0	26636	16663.288122094018	0
0	26645	16667.767076375205	1
0	26646	16668.586050066771	0
0	26655	16675.098104929403	1
0	26657	16675.733904454912	2
0	26659	16675.899118001736	3
0	26661	16676.484061808784	4
0	26662	16676.592628108323	3
0	26667	16677.954281010092	2
0	26670	16679.523392999717	1
0	26674	16679.905355878198	2
0	26675	16681.170889287987	1
0	26678	16682.746206633547	0
0	26685	16684.85518632867	1
0	26687	16685.112093424806	2
0	26688	16686.136237726161	1
0	26691	16687.87352346758	0
0	26705	16694.650605395126	1
0	26706	16695.615159851698	0
0	26710	16696.953746532705	1
0	26711	16697.092977515062	0
0	26717	16698.543634844081	1
0	26718	16698.774004509313	0
0	26745	16714.972698151427	1
0	26746	16715.907127500765	0
0	26755	16719.183097558315	1
0	26757	16719.372252523368	2
0	26758	16719.905336112319	1
0	26761	16721.611674319184	0
0	26785	16737.293136827713	1
0	26786	16737.963056555359	0
0	26795	16740.772926253895	1
0	26798	16742.109243156633	0
0	26810	16746.219051662096	1
0	26811	16746.949432288788	0
0	26815	16747.435551296575	1
0	26816	16748.169277918085	0
0	26830	16753.416951014052	1
0	26832	16754.111628538258	2
0	26833	16754.259281475006	1
0	26836	16755.85601941338	0
0	26845	16760.852361075562	1
0	26846	16761.91176362572	0
0	26935	16846.910748421777	1
0	26937	16847.37080431722	2
0	26938	16848.064001578814	1
0	26944	16848.144207455695	2
0	26945	16849.480235146894	1
0	26949	16849.657408748754	2
0	26950	16851.289468263066	1
0	26953	16853.164868253632	0
0	26957	16854.526394368667	1
0	26958	16854.768904493167	0
0	27015	16897.695519928651	1
0	27016	16899.195296088235	0
0	27020	16899.763942054288	1
0	27022	16900.169341536891	2
0	27023	16900.500748019108	1
0	27027	16901.040355924147	2
0	27028	16901.827898412572	1
0	27031	16903.420776216129	0
0	27065	16952.497979198111	1
0	27066	16952.505433851149	0
0	27070	16952.662332656662	1
0	27071	16954.325541803468	0
0	27100	16975.435702121321	1
0	27101	16975.959789687778	0
0	27145	17040.105068664342	1
0	27147	17040.49218771313	2
0	27148	17040.745825653381	1
0	27152	17041.029317729442	2
0	27153	17042.569925504967	1
0	27157	17042.706570420005	2
0	27158	17044.254043794095	1
0	27161	17045.678862594485	0
0	27165	17046.438806298608	1
0	27166	17047.257932951159	0
0	27170	17047.740429725772	1
0	27172	17048.020043576821	2
0	27173	17049.203152607239	1
0	27176	17050.453584445126	0
0	27210	17088.595310883493	1
0	27212	17089.309493650285	2
0	27213	17090.168388981644	1
0	27218	17091.689398854311	0
0	27225	17093.231844194693	1
0	27227	17093.466991450944	2
0	27228	17094.92941787121	1
0	27231	17096.636326666261	0
0	27285	17155.087934579835	1
0	27286	17155.197481200625	0
0	27290	17156.742503642338	1
0	27291	17157.171013948289	0
0	27295	17157.360019502923	1
0	27296	17159.109244750408	0
0	27300	17159.802598277627	1
0	27301	17160.848092785818	0
0	27305	17161.527032649161	1
0	27306	17162.727702830141	0
0	27310	17163.056552431811	1
0	27312	17163.460547901764	2
0	27313	17164.228200211344	1
0	27317	17165.031662077138	2
0	27318	17165.521863577669	1
0	27322	17165.94290589705	2
0	27324	17166.196330913053	3
0	27325	17166.957234584135	2
0	27329	17167.759281136195	3
0	27330	17168.203909521331	2
0	27334	17168.931648695313	3
0	27335	17169.834269907293	2
0	27339	17171.072185659091	3
0	27341	17171.399086542821	4
0	27342	17171.759477937003	3
0	27345	17173.217046785881	2
0	27348	17174.575267212806	1
0	27352	17174.780020515548	2
0	27354	17175.55266627064	3
0	27355	17176.387838366596	2
0	27359	17177.317599108825	3
0	27361	17177.390108459306	4
0	27362	17178.013453487834	3
0	27365	17179.592157404652	2
0	27369	17180.260953352045	3
0	27370	17181.032168292968	2
0	27374	17182.072394331671	3
0	27375	17182.771378030783	2
0	27379	17183.949221344045	3
0	27381	17184.387321952919	4
0	27382	17184.419300565651	3
0	27385	17186.154734160347	2
0	27388	17187.851607854446	1
0	27391	17189.26880108655	0
0	27397	17190.641540140588	1
0	27398	17191.000502552432	0
0	27405	17194.229658108656	1
0	27406	17194.314411336337	0
0	27425	17209.784149237631	1
0	27426	17210.931291737696	0
0	27465	17239.232627218934	1
0	27467	17239.287354416116	2
0	27468	17240.547009356015	1
0	27472	17241.104705996003	2
0	27474	17241.219980438549	3
0	27475	17242.254884269715	2
0	27479	17242.753829462811	3
0	27480	17244.032991275632	2
0	27483	17245.633813426339	1
0	27486	17246.99035388443	0
0	27495	17249.245428994966	1
0	27497	17249.566027985505	2
0	27498	17250.199577896738	1
0	27502	17250.811670795179	2
0	27504	17251.959038228651	3
0	27505	17252.138246884824	2
0	27509	17253.408093762971	3
0	27510	17254.00003737572	2
0	27514	17255.617325791639	3
0	27515	17255.634341741422	2
0	27518	17256.930769724468	1
0	27522	17257.048206836331	2
0	27523	17258.460001394594	1
0	27526	17259.786483299429	0
0	27545	17272.927960217209	1
0	27546	17274.474367779562	0
0	27555	17277.897017002846	1
0	27556	17278.032085903058	0
0	27560	17279.47206451167	1
0	27561	17279.491491748648	0
0	27565	17280.255104251431	1
0	27566	17281.363036485085	0
0	27570	17281.566552573038	1
0	27573	17282.697780781867	0
0	27585	17293.885721003374	1
0	27587	17293.897994138452	2
0	27588	17294.025099288173	1
0	27591	17295.680596496038	0
0	27605	17303.218661172874	1
0	27606	17303.474500430485	0
0	27635	17320.278642659183	1
0	27636	17320.503209170881	0
0	27655	17333.119892921737	1
0	27656	17333.812814473489	0
0	27662	17335.048667234976	1
0	27663	17335.568113817962	0
0	27667	17335.84915463059	1
0	27669	17336.327396970097	2
0	27671	17336.597526952856	3
0	27672	17337.279087775702	2
0	27675	17338.918460749032	1
0	27680	17340.157794672752	0
0	27684	17340.633346836354	1
0	27686	17341.209436841975	2
0	27687	17341.888490161987	1
0	27691	17342.81944609138	2
0	27692	17343.71805169856	1
0	27696	17343.889801698946	2
0	27698	17344.079458921801	3
0	27699	17344.930399199518	2
0	27703	17345.592889095824	3
0	27705	17345.694712984112	4
0	27706	17346.409000096972	3
0	27709	17347.609076915438	2
0	27713	17347.980256768336	3
0	27714	17348.855194538961	2
0	27718	17349.285069891395	3
0	27719	17350.829837013352	2
0	27722	17352.345096880327	1
0	27725	17354.176947228926	0
0	27732	17355.824262543166	1
0	27734	17356.902055706691	2
0	27735	17357.090135502385	1
0	27741	17357.718216914211	2
0	27744	17359.084089853929	1
0	27747	17360.381985694484	0
0	27751	17361.306705491292	1
0	27753	17361.495194786609	2
0	27754	17361.864269150549	1
0	27758	17361.971894906081	2
0	27761	17363.632344751374	1
0	27764	17365.155922211276	0
0	27768	17365.35566341494	1
0	27770	17366.089800724859	2
0	27771	17367.109306285472	1
0	27774	17368.769539689214	0
0	27781	17371.225820859627	1
0	27782	17372.211165189871	0
0	27786	17373.341110344358	1
0	27787	17373.636346455791	0
0	27791	17373.636608308348	1
0	27795	17375.522591219812	2
0	27796	17375.560559874156	1
0	27799	17376.870992630103	0
0	27806	17379.305832755309	1
0	27807	17380.214124839695	0
0	27811	17381.573823481215	1
0	27812	17381.577809568809	0
0	27821	17383.698640091068	1
0	27823	17384.437289026049	2
0	27824	17384.48938515404	1
0	27828	17385.322600902222	2
0	27831	17385.818971902446	1
0	27834	17387.240454164648	0
0	27841	17388.746824186665	1
0	27843	17388.884340404756	2
0	27845	17388.944462489261	3
0	27846	17390.068023351522	2
0	27851	17391.656283618266	1
0	27855	17392.460037101656	2
0	27856	17392.96805722596	1
0	27859	17394.221376943345	0
0	27863	17394.503639734277	1
0	27864	17395.437113816234	0
0	27868	17395.491826137731	1
0	27870	17395.564799439267	2
0	27872	17396.485880731683	3
0	27873	17397.038814465086	2
0	27876	17398.910912659521	1
0	27880	17399.826722749191	2
0	27882	17400.230215552536	3
0	27883	17400.314364660474	2
0	27886	17401.77772891702	1
0	27890	17401.891202656132	2
0	27891	17402.985245792138	1
0	27895	17403.295794862065	2
0	27896	17404.250294714178	1
0	27899	17405.851516396682	0
0	27912	17411.170363662739	1
0	27913	17411.365108518805	0
0	27930	17415.777060376993	1
0	27933	17417.435439610612	0
0	27937	17419.064847494158	1
0	27938	17419.329316918683	0
0	27970	17448.809680548105	1
0	27971	17450.046015657381	0
0	27975	17451.71562820233	1
0	27976	17451.891722851516	0
0	27980	17452.540973878495	1
0	27981	17453.698446634867	0
0	27985	17454.197674582124	1
0	27986	17455.495546481841	0
0	27995	17460.014108982509	1
0	27996	17461.306280658803	0
0	28025	17483.504755793603	1
0	28026	17483.775983764146	0
0	28040	17489.315388871974	1
0	28041	17489.6892996497	0
0	28045	17490.159077264764	1
0	28046	17491.18161540921	0
0	28050	17491.516764020942	1
0	28052	17491.690805760958	2
0	28053	17492.751590189851	1
0	28057	17494.09163557156	2
0	28058	17494.210628594599	1
0	28062	17495.499036611098	2
0	28063	17496.017405192695	1
0	28066	17497.449746604964	0
0	28070	17498.292718313104	1
0	28071	17498.649887671091	0
0	28075	17498.834806151366	1
0	28076	17500.014586748883	0
0	28080	17500.521334089199	1
0	28081	17501.451866345435	0
0	28085	17502.597278910355	1
0	28086	17502.910600636296	0
0	28090	17503.231336942824	1
0	28091	17504.323423681922	0
0	28100	17509.422186004194	1
0	28102	17509.631605068358	2
0	28103	17510.91047908581	1
0	28106	17512.163175592303	0
0	28115	17517.699050712607	1
0	28116	17518.985387409469	0
0	28135	17535.09097512847	1
0	28136	17535.317193227634	0
0	28140	17536.532097528976	1
0	28141	17536.918096477352	0
0	28145	17537.44278976433	1
0	28147	17538.09159682393	2
0	28148	17538.177072408236	1
0	28151	17539.456021825037	0
0	28205	17575.299959873519	1
0	28206	17576.642777232466	0
0	28210	17576.755143709114	1
0	28211	17578.175635442709	0
0	28215	17578.725081670892	1
0	28216	17579.869323170198	0
0	28255	17609.6832424619	1
0	28256	17610.606923390812	0
0	28270	17614.647884129618	1
0	28272	17615.274432155009	2
0	28273	17615.588570624741	1
0	28278	17617.026576257276	0
0	28282	17617.092408512505	1
0	28284	17618.104278381094	2
0	28285	17618.432712823677	1
0	28288	17620.152670734155	0
0	28300	17624.478011026882	1
0	28303	17625.936821593327	0
0	28312	17627.559169805656	1
0	28313	17628.56678020673	0
0	28350	17654.326829013245	1
0	28351	17655.270156514765	0
0	28355	17655.697750515689	1
0	28356	17656.874717430332	0
0	28360	17657.327624539734	1
0	28361	17658.865296989427	0
0	28370	17661.4154991865	1
0	28372	17661.719553143658	2
0	28373	17662.030583836657	1
0	28378	17663.536281900627	0
0	28387	17665.344836568081	1
0	28388	17666.572980376666	0
0	28400	17671.813560641835	1
0	28401	17672.506549566703	0
0	28415	17679.539368996368	1
0	28416	17680.160436991076	0
0	28425	17683.097623097746	1
0	28426	17683.846944568435	0
0	28430	17685.071863387906	1
0	28431	17685.361261706183	0
0	28435	17685.379306679854	1
0	28436	17687.281927064562	0
0	28440	17688.311236626033	1
0	28441	17688.875470928417	0
0	28445	17689.255310843075	1
0	28446	17690.804983322078	0
0	28450	17691.433964090202	1
0	28451	17692.005973129103	0
0	28455	17692.73131194821	1
0	28456	17693.374999024103	0
0	28460	17694.614077004972	1
0	28461	17695.32151832668	0
0	28465	17695.778139349314	1
0	28466	17697.159875135998	0
0	28470	17698.713685399512	1
0	28471	17699.089146180021	0
0	28505	17724.858496447209	1
0	28506	17726.200449948936	0
0	28510	17726.637750379114	1
0	28511	17727.488415216088	0
0	28515	17727.637688703296	1
0	28517	17728.891293910636	2
0	28518	17729.354026844158	1
0	28522	17729.774283299322	2
0	28523	17730.889537117436	1
0	28527	17731.067298873017	2
0	28528	17732.420262418866	1
0	28532	17733.320520325901	2
0	28533	17734.382940015748	1
0	28538	17735.97641444429	0
0	28542	17736.211227184106	1
0	28545	17737.592158078395	0
0	28549	17738.698928328664	1
0	28550	17739.39077687002	0
0	28554	17740.253610244461	1
0	28556	17740.540778979122	2
0	28557	17740.974950394027	1
0	28560	17742.32498873993	0
0	28567	17743.977554013271	1
0	28568	17745.53561461176	0
0	28575	17747.975328840705	1
0	28576	17749.06593478582	0
0	28585	17751.653576470098	1
0	28586	17752.512146695509	0
0	28595	17756.696528088189	1
0	28597	17756.821965877148	2
0	28598	17757.258779983624	1
0	28603	17758.991247274383	0
0	28607	17759.176575972174	1
0	28608	17760.672644066094	0
0	28620	17763.627969829585	1
0	28622	17764.75278727303	2
0	28623	17765.548780792846	1
0	28626	17766.965493325411	0
0	28650	17806.529729782418	1
0	28651	17807.568334421957	0
0	28655	17808.667567892694	1
0	28656	17809.197318629058	0
0	28675	17817.548718688414	1
0	28676	17817.568695327842	0
0	28680	17818.606027105668	1
0	28681	17819.554549618082	0
0	28710	17851.836564384909	1
0	28711	17852.097327477313	0
0	28745	17874.202715761375	1
0	28748	17874.457799580381	0
0	28752	17874.675873358553	1
0	28753	17875.804315759302	0
0	28757	17875.963806010202	1
0	28758	17877.081245753043	0
0	28762	17877.80309556116	1
0	28763	17878.530659332	0
0	28767	17879.266970461302	1
0	28768	17880.408803652287	0
0	28772	17880.672631053987	1
0	28775	17882.354954316155	0
0	28779	17882.813006856243	1
0	28780	17884.198685091608	0
0	28787	17885.99132530279	1
0	28788	17886.719953481913	0
0	28792	17887.807984208156	1
0	28793	17888.456085424558	0
0	28802	17889.960192992634	1
0	28804	17891.374331107708	2
0	28805	17891.491428779498	1
0	28810	17893.091136104301	0
0	28814	17893.249622941627	1
0	28816	17894.068595793157	2
0	28819	17894.879081057072	1
0	28823	17894.985961019723	2
0	28824	17896.095679281526	1
0	28827	17897.52602291076	0
0	28837	17900.642334050793	1
0	28839	17901.017275414863	2
0	28841	17901.157119327605	3
0	28842	17902.10289943783	2
0	28846	17902.847100120467	3
0	28849	17903.92371781642	2
0	28853	17904.567788713473	3
0	28854	17905.592649247557	2
0	28859	17907.168651900686	1
0	28862	17908.684416366428	0
0	28866	17909.462487005566	1
0	28867	17910.344674184792	0
0	28871	17910.419928204795	1
0	28873	17911.417079233049	2
0	28875	17911.485069599312	3
0	28876	17911.932886197478	2
0	28879	17913.619876226657	1
0	28882	17915.255813578018	0
0	28886	17916.714689254584	1
0	28887	17917.025900178649	0
0	28891	17917.265937667193	1
0	28892	17918.550942784608	0
0	28899	17920.705745722555	1
0	28901	17920.764503664817	2
0	28903	17921.498772437915	3
0	28904	17921.769400895633	2
0	28907	17923.289451379389	1
0	28913	17923.994713894032	2
0	28914	17924.613319251746	1
0	28917	17926.505080046751	0
0	28923	17927.355323079955	1
0	28925	17927.848683094843	2
0	28926	17928.336507107936	1
0	28930	17928.419931242201	2
0	28931	17929.580794059172	1
0	28934	17931.432368044801	0
0	28941	17934.399825648691	1
0	28942	17934.413213243395	0
0	28952	17938.513321612151	1
0	28953	17939.587943828351	0
0	29000	17961.58720077249	1
0	29001	17962.222993110634	0
0	29055	17988.226821027307	1
0	29056	17989.664948134983	0
0	29060	17989.931196183098	1
0	29061	17991.244283525946	0
0	29080	17997.475396720273	1
0	29081	17999.167598942562	0
0	29100	18008.487797727378	1
0	29101	18009.053123478744	0
0	29125	18022.006911052193	1
0	29126	18022.062155521385	0
0	29145	18038.936387311694	1
0	29146	18038.946547428733	0
0	29150	18039.028778737382	1
0	29151	18040.451532059005	0
0	29170	18052.20119160768	1
0	29171	18052.847976878853	0
0	29180	18055.822558554874	1
0	29181	18055.84387044386	0
0	29195	18059.371810364551	1
0	29198	18060.82797731029	0
0	29202	18062.129162304451	1
0	29203	18062.227873758582	0
0	29240	18118.419665317609	1
0	29242	18118.520921691345	2
0	29243	18118.838464588102	1
0	29246	18120.201614049438	0
0	29267	18128.363060231307	1
0	29269	18129.012090702457	2
0	29270	18129.260527325946	1
0	29275	18131.182732341032	0
0	29282	18133.291363735941	1
0	29284	18133.981411912816	2
0	29285	18133.991927276331	1
0	29288	18135.702787024307	0
0	29294	18136.836732243054	1
0	29295	18137.152451688389	0
0	29307	18140.381328402781	1
0	29309	18141.137097862677	2
0	29310	18141.242215774918	1
0	29313	18142.832005974615	0
0	29317	18142.916898094857	1
0	29318	18144.120367358217	0
0	29325	18146.071819941998	1
0	29327	18146.228370471821	2
0	29329	18146.415546104175	3
0	29332	18147.200953345524	2
0	29336	18147.566841991649	3
0	29337	18148.613677296566	2
0	29341	18149.139948773904	3
0	29344	18150.072515577229	2
0	29347	18151.902946178766	1
0	29350	18153.560354010725	0
0	29357	18155.835296116413	1
0	29358	18156.58497761056	0
0	29362	18157.680073244729	1
0	29365	18158.1909721417	0
0	29390	18171.394030625905	1
0	29393	18172.377112064676	0
0	29397	18172.691557802945	1
0	29398	18174.305256870182	0
0	29455	18214.925430643894	1
0	29457	18215.80821726101	2
0	29458	18216.194954688655	1
0	29461	18217.889286159346	0
0	29467	18219.184935393001	1
0	29468	18219.824688876601	0
0	29475	18221.946763656153	1
0	29476	18222.684912572423	0
0	29480	18223.669551406487	1
0	29481	18224.497457870835	0
0	29487	18224.70489501687	1
0	29489	18225.274672656999	2
0	29490	18225.929959657969	1
0	29493	18227.133379488805	0
0	29497	18227.717166932772	1
0	29499	18228.302810488058	2
0	29500	18228.341126650566	1
0	29504	18228.783683626681	2
0	29505	18229.94023014977	1
0	29509	18230.094786081737	2
0	29513	18231.127278785836	3
0	29514	18231.822275779763	2
0	29518	18232.075890641476	3
0	29519	18233.516049955034	2
0	29522	18234.804388488823	1
0	29526	18235.810793190886	2
0	29527	18236.559998384671	1
0	29530	18237.946775650041	0
0	29534	18238.208950543165	1
0	29536	18238.430785191288	2
0	29537	18239.805500366719	1
0	29541	18240.12184564755	2
0	29542	18241.190903239132	1
0	29546	18241.939344401267	2
0	29547	18242.673197380074	1
0	29551	18243.130806050177	2
0	29552	18243.936215186857	1
0	29556	18244.020453903311	2
0	29557	18245.642986832925	1
0	29561	18245.80772315714	2
0	29562	18247.15942482482	1
0	29565	18248.757731118606	0
0	29569	18250.133817301585	1
0	29570	18250.467663032369	0
0	29577	18252.520802439358	1
0	29578	18252.932983595499	0
0	29585	18255.371981764032	1
0	29586	18256.025395703309	0
0	29615	18269.585376314947	1
0	29616	18270.539667185109	0
0	29640	18280.295787707393	1
0	29642	18281.43340907715	2
0	29643	18281.445540560469	1
0	29646	18283.297663746461	0
0	29690	18330.24330363142	1
0	29691	18331.778527006639	0
0	29710	18355.097731449845	1
0	29711	18356.556002007764	0
0	29720	18359.041836390998	1
0	29722	18359.140592544071	2
0	29723	18359.955718634989	1
0	29728	18361.401700006019	0
0	29732	18361.956039930977	1
0	29733	18362.605945112709	0
0	29737	18363.840786028632	1
0	29738	18364.268794339117	0
0	29742	18364.495318209223	1
0	29745	18366.063422319446	0
0	29767	18376.149519932081	1
0	29768	18376.15981643412	0
0	29772	18376.473304998837	1
0	29773	18377.53436315458	0
0	29782	18379.756736346698	1
0	29783	18380.341439833191	0
0	29797	18385.340357168641	1
0	29798	18385.568974375844	0
0	29802	18386.473658822995	1
0	29803	18387.255723859489	0
0	29809	18388.298959199739	1
0	29811	18388.442459279914	2
0	29812	18388.660646740653	1
0	29815	18390.230300279826	0
0	29830	18398.338623400295	1
0	29832	18398.490488180112	2
0	29833	18399.342172189835	1
0	29836	18400.979303137432	0
0	29840	18402.836685551331	1
0	29842	18402.862566547225	2
0	29843	18402.940897796522	1
0	29846	18404.391912253606	0
0	29850	18404.460507434084	1
0	29851	18405.706217047605	0
0	29870	18415.25781303072	1
0	29871	18415.444423192362	0
0	29875	18416.212268924165	1
0	29876	18417.005561394239	0
0	29880	18417.08828474127	1
0	29881	18418.998063548276	0
0	29890	18422.083414738563	1
0	29891	18423.328347112555	0
0	29960	18530.050887350434	1
0	29961	18530.738187032019	0
0	29965	18530.878204082383	1
0	29966	18532.621751501982	0
0	29975	18535.264662293426	1
0	29976	18536.068655517839	0
0	29982	18536.992830108265	1
0	29983	18537.722131427333	0
0	29987	18538.802048996449	1
0	29988	18539.137796945267	0
0	29995	18541.287126111273	1
0	29996	18542.330688065619	0
0	30017	18549.43609379356	1
0	30018	18549.746338494443	0
0	30027	18552.010645772255	1
0	30028	18552.707210653968	0
0	30034	18553.794965532745	1
0	30035	18553.917685184389	0
0	30049	18557.173977145221	1
0	30050	18558.233684180066	0
0	30070	18566.130355648721	1
0	30072	18566.149995473477	2
0	30073	18566.181626345911	1
0	30077	18567.104508702288	2
0	30080	18567.791614605808	1
0	30084	18569.006672573761	2
0	30085	18569.040655631707	1
0	30089	18569.139995766556	2
0	30091	18569.368367961502	3
0	30092	18570.295571412095	2
0	30095	18572.021018394218	1
0	30099	18572.501263838352	2
0	30100	18573.762277104655	1
0	30103	18575.691158422777	0
0	30107	18576.637485912646	1
0	30108	18577.478281549314	0
0	30112	18577.569019729067	1
0	30114	18578.073943313108	2
0	30115	18579.463255186329	1
0	30118	18581.156862584638	0
0	30122	18581.164132535434	1
0	30123	18583.152963488127	0
0	30127	18583.46432221843	1
0	30128	18584.411521955344	0
0	30135	18587.807771893424	1
0	30136	18588.005169352653	0
0	30150	18594.008895422171	1
0	30151	18594.890000121933	0
0	30155	18595.813253096237	1
0	30156	18596.625151207749	0
0	30200	18647.35433383929	1
0	30201	18648.277261761959	0
0	30225	18683.053054069988	1
0	30226	18684.125566636107	0
0	30245	18701.779402218987	1
0	30246	18703.250113439323	0
0	30255	18704.881530586502	1
0	30256	18706.24836611595	0
0	30260	18706.68443938134	1
0	30262	18706.835391515595	2
0	30263	18708.184001895376	1
0	30266	18709.801993092113	0
0	30275	18712.042276836123	1
0	30276	18713.040074971096	0
0	30280	18714.155326838373	1
0	30281	18714.768342962266	0
0	30285	18714.835916964426	1
0	30286	18715.975673049652	0
0	30300	18735.525188353457	1
0	30302	18736.122770680438	2
0	30303	18736.94504210525	1
0	30306	18738.763612940952	0
0	30310	18738.942983088083	1
0	30311	18740.397593920164	0
0	30330	18765.576344329695	1
0	30331	18766.309505697907	0
0	30345	18772.656144828615	1
0	30346	18773.618924953512	0
0	30355	18775.612805725574	1
0	30356	18776.540177864119	0
0	30375	18803.521341291449	1
0	30376	18804.310825905756	0
0	30390	18812.197596701415	1
0	30391	18812.992880908902	0
0	30395	18813.516125572366	1
0	30396	18814.880271733123	0
0	30435	18842.508716040303	1
0	30436	18843.447963853414	0
0	30440	18844.513865266708	1
0	30441	18845.394042462717	0
0	30450	18847.103494926037	1
0	30452	18847.85142125997	2
0	30453	18848.320627650904	1
0	30456	18850.115512510861	0
0	30500	18893.462156205357	1
0	30501	18894.432329213357	0
0	30510	18898.084043052889	1
0	30511	18899.36355400473	0
0	30515	18900.908455211783	1
0	30516	18900.967477399634	0
0	30535	18909.526010158249	1
0	30536	18910.126299235087	0
0	30540	18911.166891118047	1
0	30541	18911.755425249647	0
0	30545	18912.333058350978	1
0	30547	18912.898950992908	2
0	30548	18913.34285906763	1
0	30551	18914.693012176502	0
0	30560	18916.631215552936	1
0	30562	18916.748766271845	2
0	30563	18917.448369335206	1
0	30566	18919.425716023156	0
0	30570	18920.57422349292	1
0	30571	18920.707673510173	0
0	30575	18921.082340865436	1
0	30577	18921.251220012791	2
0	30578	18921.978798676664	1
0	30581	18923.356434119502	0
0	30605	18938.253514021824	1
0	30606	18938.392116118478	0
0	30660	18985.38192268452	1
0	30663	18986.040110500799	0
0	30670	18987.933384605711	1
0	30671	18988.953783234479	0
0	30680	18991.597619338292	1
0	30681	18992.506815817682	0
0	30690	18995.925207845576	1
0	30691	18996.884892569952	0
0	30695	18997.939299057246	1
0	30696	18998.35851825653	0
0	30705	19017.190057868451	1
0	30706	19017.793271772434	0
0	30720	19030.12176952097	1
0	30721	19030.472263378163	0
0	30725	19030.569081300112	1
0	30726	19032.051920092364	0
0	30730	19032.115875674002	1
0	30731	19033.677658009601	0
0	30735	19034.067107739859	1
0	30736	19035.011290444319	0
0	30755	19044.303748502536	1
0	30756	19044.672117248568	0
0	30760	19045.200856969982	1
0	30761	19046.155755671318	0
0	30765	19046.74153372914	1
0	30766	19047.572360388766	0
0	30775	19049.667443799425	1
0	30777	19049.674635956403	2
0	30778	19051.296121437735	1
0	30782	19051.520984083554	2
0	30783	19052.939177250191	1
0	30786	19054.337792629636	0
0	30790	19054.503058373541	1
0	30791	19055.993157466388	0
[...]
8	17057	10888.429957910823	1
8	17061	10889.181846469646	0
8	17066	10890.245144680711	1
8	17070	10890.844124816111	0
8	17091	10898.633236998888	1
8	17093	10898.847401187071	0
8	17617	11148.277442071775	1
8	17619	11149.506847447465	0
8	17622	11150.143842898497	1
8	17629	11152.268851676737	0
8	17640	11156.480943428788	1
8	17641	11158.491599206445	0
8	17650	11161.476094877352	1
8	17651	11161.644546328892	0
8	17925	11347.216959632467	1
8	17926	11347.663226903974	0
8	17989	11383.898316781196	1
8	17991	11384.702406778033	0
8	18179	11476.773097087386	1
8	18181	11477.584495675395	0
8	18184	11478.368156072627	1
8	18189	11480.413988494347	0
8	18197	11483.005084266271	1
8	18199	11483.694564738409	0
8	18647	11790.860087341685	1
8	18653	11792.368754092583	0
8	18659	11793.971217537169	1
8	18662	11795.550326419306	2
8	18664	11796.200552597789	1
8	18666	11796.307842568466	0
8	18722	11812.453739141171	1
8	18730	11816.211883558949	2
8	18732	11817.333405739316	1
8	18738	11819.559223159274	2
8	18745	11822.422002251003	1
8	18750	11822.962984039279	0
8	18755	11824.155872928596	1
8	18757	11824.850750948506	0
8	18760	11825.593964038289	1
8	18762	11826.536235757993	0
8	18765	11826.942224999203	1
8	18773	11830.745394929201	0
8	18781	11833.650906892552	1
8	18783	11833.677758917851	0
8	18794	11838.616940465069	1
8	18796	11839.226434378675	0
8	18821	11847.258079343907	1
8	18823	11847.447945173618	0
8	18864	11861.834693509212	1
8	18868	11862.785341414441	0
8	19117	11988.023472580303	1
8	19124	11990.60541003383	0
8	19360	12126.536489569166	1
8	19361	12126.892330472284	0
8	19470	12182.371612143467	1
8	19474	12183.978347981878	0
8	19502	12193.385284638937	1
8	19504	12193.997206349735	0
8	19541	12204.230783949207	1
8	19543	12205.380691347736	0
8	19559	12209.897101679232	1
8	19561	12210.433947168204	0
8	19564	12211.203099001173	1
8	19569	12213.019651895363	2
8	19574	12215.808867626241	1
8	19578	12216.691363154833	0
8	19877	12391.084569332256	1
8	19881	12393.509596344925	0
8	19902	12399.857253544502	1
8	19906	12401.106347845272	0
8	19937	12411.868286468557	1
8	19939	12412.043990362465	0
8	20027	12504.78440470002	1
8	20029	12505.024472359185	0
8	20292	12692.662022421326	1
8	20295	12693.925225111287	2
8	20296	12694.153322301709	1
8	20299	12694.659952750171	0
8	20387	12736.643841434402	1
8	20389	12736.989779310261	0
8	20397	12740.068941721452	1
8	20401	12741.583124352453	0
8	20425	12748.726613345017	1
8	20429	12750.814169149937	0
8	20552	12794.296415876509	1
8	20554	12794.635767700565	0
8	20562	12797.225272810744	1
8	20567	12798.476000790397	2
8	20571	12799.412678654478	1
8	20580	12800.798348728989	0
8	20591	12805.231368069078	1
8	20593	12805.57555067546	0
8	20596	12806.817383505504	1
8	20601	12808.610505689967	2
8	20603	12808.638344957063	1
8	20605	12810.027289414013	0
8	20643	12822.166835586455	1
8	20645	12822.35576449557	0
8	20648	12823.508149656754	1
8	20650	12824.612345009448	0
8	21132	13164.78318047431	1
8	21139	13170.276165378971	0
8	21729	13536.856764307805	1
8	21731	13537.454205157882	0
8	21734	13538.701199723036	1
8	21736	13539.241886826348	0
8	21934	13634.576159245543	1
8	21936	13634.726438959263	0
8	21959	13643.235723073243	1
8	21961	13643.364967456356	0
8	22030	13673.579535032664	1
8	22031	13674.233619631454	0
8	22035	13675.733626405336	1
8	22036	13676.133642397886	0
8	22605	14026.511522598684	1
8	22606	14027.156549585462	0
8	22612	14028.981767023392	1
8	22614	14029.377983977703	0
8	22627	14034.175901701525	1
8	22629	14036.040953208922	0
8	22642	14040.059944064208	1
8	22644	14040.27658313717	0
8	23197	14458.324520953844	1
8	23199	14459.106697546584	0
8	23401	14586.944212929222	1
8	23403	14587.689290151666	0
8	23423	14593.742872075613	1
8	23441	14600.666539833521	0
8	23444	14601.695949307146	1
8	23447	14603.663071015539	2
8	23451	14605.362094702558	1
8	23454	14606.673655240598	0
8	23457	14606.920976281339	1
8	23459	14608.119635891619	0
8	23649	14721.336064514337	1
8	23651	14721.992469456854	0
8	23915	14880.445608718929	1
8	23916	14883.167181960988	0
8	24019	14929.498964692344	1
8	24021	14930.315194890552	0
8	25090	15687.709429439331	1
8	25091	15688.020346139356	0
8	25472	15875.532237018327	1
8	25474	15875.993760634217	0
8	25487	15880.22767564101	1
8	25491	15880.828090114051	0
8	25675	16010.904684406396	1
8	25676	16011.243603434566	0
8	25725	16029.454218723604	1
8	25726	16029.721547967646	0
8	25795	16082.136867794186	1
8	25799	16085.563233837131	0
8	25802	16085.977631486553	1
8	25806	16090.219365212898	0
8	26679	16682.746206633547	1
8	26684	16684.85518632867	0
8	26747	16715.907127500765	1
8	26750	16717.877786696769	2
8	26751	16718.194983558519	1
8	26754	16719.183097558315	0
8	27222	17092.935517051156	1
8	27224	17093.231844194693	0
8	27235	17097.857638177547	1
8	27236	17097.864925435849	0
8	27366	17179.592157404652	1
8	27368	17180.260953352045	0
8	27376	17182.771378030783	1
8	27378	17183.949221344045	0
8	27681	17340.157794672752	1
8	27683	17340.633346836354	0
8	27693	17343.71805169856	1
8	27695	17343.889801698946	0
8	27729	17355.654307622964	1
8	27731	17355.824262543166	0
8	27816	17382.899710223952	1
8	27820	17383.698640091068	0
8	27865	17395.437113816234	1
8	27867	17395.491826137731	0
8	28047	17491.18161540921	1
8	28051	17491.690805760958	0
8	28120	17520.705418314962	1
8	28121	17522.438600474198	0
8	28279	17617.026576257276	1
8	28281	17617.092408512505	0
8	28365	17660.089786314526	1
8	28369	17661.4154991865	0
8	28437	17687.281927064562	1
8	28439	17688.311236626033	0
8	28475	17700.437389845157	1
8	28476	17701.670096956014	0
8	28480	17702.995081465512	1
8	28481	17705.602514005312	0
8	28572	17747.272771288447	1
8	28574	17747.975328840705	0
8	28784	17885.467677665562	1
8	28786	17885.99132530279	0
8	28828	17897.52602291076	1
8	28831	17898.871274758377	2
8	28836	17900.642334050793	1
8	28838	17901.017275414863	0
8	28863	17908.684416366428	1
8	28870	17910.419928204795	0
8	28918	17926.505080046751	1
8	28924	17927.848683094843	0
8	29255	18124.725269149949	1
8	29266	18128.363060231307	0
8	29322	18145.487767333874	1
8	29326	18146.228370471821	0
8	29472	18221.329408196727	1
8	29474	18221.946763656153	0
8	29819	18391.789329327203	1
8	29829	18398.338623400295	0
8	29837	18400.979303137432	1
8	29839	18402.836685551331	0
8	29855	18407.428196897018	1
8	29856	18407.629412288561	0
8	30012	18548.065311451018	1
8	30016	18549.43609379356	0
8	30272	18711.534703663328	1
8	30274	18712.042276836123	0
8	30445	18846.773644701625	1
8	30446	18846.929058791796	0
8	30767	19047.572360388766	1
8	30770	19049.477469556424	2
8	30771	19049.51614600446	1
8	30774	19049.667443799425	0
8	30810	19062.240460487528	1
8	30811	19062.24577876952	0
8	30895	19095.996886634914	1
8	30896	19096.369204385298	0
8	31102	19194.072083036237	1
8	31106	19195.283963492877	0
8	31133	19202.136273850696	1
8	31135	19202.948155677175	0
8	31148	19207.251947931582	1
8	31151	19208.46091714465	2
8	31153	19208.508237996386	1
8	31155	19209.639762738181	0
8	31254	19240.962077209548	1
8	31256	19241.242536789941	0
8	31412	19339.820457322038	1
8	31416	19341.506072167373	0
8	31465	19363.286066243605	1
8	31466	19364.864355606406	0
8	31482	19371.396980796297	1
8	31484	19371.780958657682	0
8	31497	19375.499035762537	1
8	31499	19376.255233389627	0
8	31524	19384.39994089036	1
8	31528	19384.772200555084	0
8	31670	19473.898948830405	1
8	31671	19473.942241433454	0
8	31682	19476.537441447755	1
8	31684	19476.932324831966	0
8	31720	19489.619555485627	1
8	31736	19496.181388156247	0
8	31889	19584.444884496769	1
8	31891	19585.277065771304	0
8	31990	19636.819296731069	1
8	31991	19640.057348726361	0
8	32235	19806.790316148667	1
8	32236	19807.580448825763	0
8	32320	19889.595043598436	1
8	32321	19891.786524413014	0
8	32334	19894.909957517171	1
8	32336	19895.991894554761	0
8	32375	19908.643757581011	1
8	32376	19909.170394216623	0
8	32465	19948.865325082972	1
8	32466	19949.016293984052	0
8	32529	19978.945011562383	1
8	32531	19979.508765508838	0
8	32549	19985.219304006635	1
8	32551	19985.702913074019	0
8	32742	20166.03046223821	1
8	32749	20168.922268271268	0
8	32800	20190.008538796864	1
8	32801	20190.791518386888	0
8	32859	20211.885175874668	1
8	32861	20211.972542763143	0
8	33667	20762.510743259617	1
8	33669	20762.778547963332	0
8	33672	20764.2486523913	1
8	33674	20764.647318918659	0
8	33679	20765.677874254786	1
8	33691	20769.532176591435	2
8	33693	20769.635843115086	1
8	33695	20770.57523589605	0
8	33698	20771.528397376814	1
8	33700	20771.566706337877	0
8	33759	20792.244033218527	1
8	33761	20792.348580912313	0
8	34077	20980.624780087266	1
8	34079	20981.040195003019	0
8	34134	21000.361670845038	1
8	34136	21001.045443660574	0
8	34142	21003.735984448939	1
8	34144	21005.051911129789	0
8	34160	21010.143059170655	1
8	34161	21011.707045509838	0
8	34210	21052.310175555523	1
8	34214	21054.349056192006	0
8	34347	21125.162601264505	1
8	34349	21126.65995487671	0
8	34420	21155.560323812797	1
8	34421	21156.287823636714	0
8	34460	21169.828042153149	1
8	34461	21171.121595027465	0
8	34665	21346.301792212359	1
8	34666	21347.642676799036	0
8	35060	21517.433979814147	1
8	35061	21517.59288866935	0
8	35134	21547.619306447072	1
8	35141	21549.549673288825	0
8	35149	21552.55609717471	1
8	35156	21557.111990459507	0
8	35240	21607.052614660405	1
8	35241	21608.866299649566	0
8	35277	21622.490564497834	1
8	35280	21624.432243139571	2
8	35281	21626.421478411656	1
8	35284	21628.346547943112	0
8	35287	21628.376715186712	1
8	35289	21628.846807302969	0
8	35484	21746.979788605759	1
8	35486	21747.417262308194	0
8	35489	21748.483918266075	1
8	35491	21748.811784055164	0
8	35494	21750.365328254255	1
8	35497	21751.900015918056	2
8	35499	21751.978956871243	1
8	35501	21752.436626298006	0
8	35526	21759.7025284699	1
8	35528	21760.715305680244	0
8	35605	21805.675646990833	1
8	35606	21807.646740412774	0
8	36140	22115.894342979972	1
8	36146	22122.833070918806	0
8	36240	22182.668054923965	1
8	36241	22184.941028177031	0
8	36330	22263.165244694689	1
8	36331	22265.89641905007	0
8	36450	22348.103583649666	1
8	36451	22349.02391659595	0
8	36510	22369.42206806764	1
8	36514	22370.520927941993	0
8	36517	22371.810786714672	1
8	36520	22373.031633517227	2
8	36521	22374.491194467858	1
8	36524	22374.716878161152	0
8	36534	22377.587801334687	1
8	36536	22378.336365574322	0
8	36549	22382.362767487072	1
8	36552	22384.143981756509	2
8	36554	22385.452450028085	1
8	36557	22385.571164580487	2
8	36559	22385.604227594613	1
8	36561	22385.980611036598	0
8	36590	22397.419918964697	1
8	36599	22402.403667736986	0
8	36630	22414.524955201474	1
8	36631	22415.383363240785	0
8	36660	22427.796745078252	1
8	36661	22428.629937526213	0
8	36667	22430.138591867315	1
8	36671	22431.598820548262	0
8	36877	22576.301451441548	1
8	36881	22576.972927713825	0
8	37360	22931.975685463214	1
8	37361	22932.484243346575	0
8	37522	23098.103544811427	1
8	37524	23098.590802918329	0
8	37529	23099.521987936355	1
8	37531	23099.884078963183	0
8	37554	23106.808928841807	1
8	37556	23106.854489046495	0
8	37822	23293.023730289515	1
8	37832	23297.306989872731	2
8	37834	23297.760532939722	1
8	37839	23299.244693541539	0
8	37842	23300.303967676215	1
8	37845	23301.608621778056	2
8	37846	23301.897851095131	1
8	37849	23301.918359074081	0
8	37870	23310.06326244638	1
8	37871	23311.555578038127	0
8	38000	23409.596337175773	1
8	38001	23410.28783097676	0
8	38040	23435.14405140577	1
8	38044	23435.607891877851	0
8	38057	23440.620827348972	1
8	38069	23444.872068574834	0
8	38077	23447.633670291738	1
8	38079	23449.096877997231	0
8	38082	23449.412097947733	1
8	38086	23451.707561190502	0
8	38515	23744.32380479092	1
8	38516	23746.088473366875	0
8	38672	23853.13855442261	1
8	38674	23853.547581009021	0
8	38957	24024.573554225939	1
8	38959	24024.894542222095	0
8	39136	24136.795098448128	1
8	39138	24138.201818394022	0
8	39240	24172.568900077692	1
8	39241	24172.585929488276	0
8	39247	24174.167743950222	1
8	39254	24176.930580801934	0
8	39407	24284.826421408375	1
8	39410	24286.44725055976	2
8	39414	24287.434240711309	1
8	39419	24288.585273601665	0
8	39695	24454.326360078308	1
8	39696	24454.839188395651	0
8	39700	24456.418366419176	1
8	39704	24459.107961922125	0
8	39930	24571.081130071468	1
8	39931	24573.865050556312	0
8	39940	24576.781925380031	1
8	39941	24576.850729486375	0
8	39945	24578.131207151367	1
8	39946	24580.399724650372	0
8	40030	24610.326102771541	1
8	40034	24611.736461500551	0
8	40099	24633.839077924458	1
8	40101	24635.23693018131	0
8	40104	24635.55969583754	1
8	40106	24636.403133632699	0
8	40144	24649.255801028464	1
8	40146	24650.462817997592	0
8	40149	24650.588641457524	1
8	40151	24650.771003431373	0
8	40310	24720.574673937814	1
8	40311	24721.570192170579	0
8	40511	24802.391546697387	1
8	40524	24807.335771153906	0
8	40537	24812.358332278611	1
8	40539	24812.955444507133	0
8	40690	24915.775465982659	1
8	40691	24915.787434920614	0
8	40700	24918.578544662466	1
8	40701	24919.226175532365	0
8	40707	24920.904017438801	1
8	40709	24921.687903502474	0
8	40879	25029.393893325536	1
8	40881	25030.650400804441	0
8	40884	25031.135444900973	1
8	40889	25033.004903908226	0
8	41143	25199.98341540526	1
8	41148	25202.078784844296	0
8	41157	25206.679765063704	1
8	41159	25207.109936018932	0
8	41174	25210.970603760697	1
8	41176	25211.03335580537	0
8	41211	25222.179927316859	1
8	41213	25222.648490676949	0
8	41231	25228.923572790428	1
8	41256	25241.601766762165	0
8	41412	25326.47846422402	1
8	41414	25326.800963189562	0
8	41480	25354.601991437918	1
8	41484	25357.886521920603	0
8	41584	25411.87621943745	1
8	41586	25412.67762391012	0
8	41589	25413.762178129136	1
8	41591	25414.912797098751	0
8	41642	25432.361521612846	1
8	41649	25434.177406854109	0
8	41820	25564.505112208307	1
8	41824	25566.490838987757	0
8	41920	25623.653362234386	1
8	41921	25624.476154540345	0
8	42015	25676.060390922764	1
8	42016	25679.886489643051	0
8	42177	25762.968180725907	1
8	42179	25764.188785862067	0
8	42200	25771.038832422156	1
8	42201	25774.351907196765	0
8	42357	25881.308355930356	1
8	42359	25881.545313444338	0
8	42514	26048.232623765498	1
8	42516	26048.462357321889	0
8	42549	26059.48143179442	1
8	42551	26059.513138991619	0
8	42787	26217.199690001253	1
8	42791	26219.006240178972	0
8	42860	26249.67030452416	1
8	42861	26249.735129891596	0
8	42989	26324.795520578392	1
8	42991	26325.73069226069	0
8	43069	26355.069473399113	1
8	43071	26355.257989726606	0
8	43320	26473.190204348051	1
8	43321	26474.916386051893	0
8	43375	26508.912797097485	1
8	43376	26509.5417868813	0
8	43390	26513.944174950334	1
8	43391	26514.107127711088	0
8	43800	26707.49979530694	1
8	43806	26710.009820206793	0
8	43875	26758.830968121522	1
8	43876	26759.19113596588	0
8	44205	26949.376050895071	1
8	44206	26950.737531586977	0
8	44212	26952.046824565212	1
8	44216	26953.340252920357	0
8	44219	26953.869205729159	1
8	44221	26953.880763935131	0
8	44937	27376.0037042092	1
8	44939	27377.231213681506	0
8	44985	27413.351537273601	1
8	44986	27413.723885189858	0
8	45085	27454.739986064185	1
8	45089	27457.996247600371	0
8	45130	27468.229376011835	1
8	45132	27469.437558361511	0
8	45301	27561.215274108973	1
8	45305	27562.430318842444	0
8	45323	27567.604739785035	1
8	45331	27571.516620048087	0
8	45412	27613.574097105127	1
8	45419	27616.763502067658	0
8	45531	27702.718758894712	1
8	45533	27702.959739183918	0
8	45564	27714.319523922004	1
8	45568	27715.112862826519	0
8	45852	27850.019603950957	1
8	45854	27850.458682206672	0
8	46250	28109.543891495581	1
8	46251	28110.564015424495	0
8	46530	28353.883920140828	1
8	46531	28354.00074508245	0
8	46567	28365.996572332632	1
8	46571	28367.575612390818	0
8	46735	28519.115487606846	1
8	46741	28521.217383988289	0
8	46765	28528.953154803775	1
8	46766	28529.204572785464	0
8	46775	28532.188942426261	1
8	46776	28532.346624586727	0
8	46890	28637.853424671212	1
8	46891	28639.940320806881	0
8	46897	28641.775208601659	1
8	46899	28642.865519145641	0
8	47121	28814.132246467599	1
8	47125	28814.739968144233	0
8	47136	28819.349229282268	1
8	47138	28820.293608085818	0
8	47287	28928.07032723544	1
8	47289	28928.621014317809	0
8	47422	29013.634971823685	1
8	47424	29014.209124064157	0
8	47955	29413.367094440992	1
8	47956	29413.622409578741	0
8	48017	29441.628355774677	1
8	48021	29444.031070227462	0
8	48157	29532.555561720546	1
8	48159	29533.471373380906	0
8	48216	29555.712919652539	1
8	48219	29557.228444890941	2
8	48226	29559.475720768223	1
8	48231	29560.294271868172	2
8	48234	29562.011476976315	3
8	48237	29563.684966937716	4
8	48241	29564.074116723214	3
8	48243	29564.54680556201	2
8	48248	29565.874098240163	1
8	48253	29566.366943771097	2
8	48255	29566.456671499416	1
8	48257	29567.042125386553	0
8	48270	29571.410209637585	1
8	48275	29574.014115958211	0
8	48288	29577.946788099299	1
8	48292	29578.553351022965	0
8	48303	29582.406507851074	1
8	48305	29582.777057967189	0
8	48330	29591.05236206379	1
8	48336	29592.336725698231	0
8	48339	29592.639371531906	1
8	48342	29594.196078648495	2
8	48347	29595.710544577504	3
8	48349	29596.23392881017	2
8	48351	29596.438850859451	1
8	48356	29598.374944236008	0
8	48387	29608.818551760616	1
8	48389	29610.039524623522	0
8	48392	29610.772926754954	1
8	48394	29611.14599118239	0
8	48418	29619.229986188453	1
8	48420	29619.889097989025	0
8	48530	29669.457840446261	1
8	48531	29669.961985017803	0
8	48537	29671.320397030633	1
8	48539	29671.416144935208	0
8	48790	29805.10863899813	1
8	48794	29806.440337052068	0
8	48799	29807.180180595836	1
8	48804	29808.925863106008	0
8	48815	29812.85002258031	1
8	48820	29815.086243072688	2
8	48821	29816.129133581493	1
8	48824	29816.365047068937	0
8	49180	29985.937330901379	1
8	49181	29986.1471342646	0
8	49187	29987.695223682043	1
8	49190	29989.64048883677	2
8	49191	29989.739807921823	1
8	49194	29989.969897123186	0
9	17275	11004.374638128602	1
9	17276	11007.194100016643	0
9	17546	11101.691990477527	1
9	17556	11107.250672301216	0
9	20497	12778.335617388323	1
9	20499	12778.965733199091	0
9	20805	12893.945257857107	1
9	20806	12895.092217242276	0
9	21910	13627.769255901859	1
9	21911	13628.207030996144	0
9	22724	14080.678490823346	1
9	22726	14080.844321675008	0
9	24132	14988.951570895872	1
9	24134	14988.977543510022	0
9	27914	17411.365108518805	1
9	27916	17411.961166215413	0
9	28843	17902.10289943783	1
9	28847	17903.240076128968	0
9	28970	17945.817813828087	1
9	28976	17951.343029623031	0
9	28980	17952.649906692765	1
9	28984	17954.687294623891	0
9	28987	17956.537023357071	1
9	28989	17957.852165283377	0
9	28992	17958.3233982272	1
9	28994	17958.396030621693	0
9	28997	17960.266217967264	1
9	29002	17962.222993110634	2
9	29004	17962.929426787365	1
9	29006	17963.012823055567	0
9	29012	17965.237525234327	1
9	29014	17966.947625552567	0
9	29260	18127.231752537771	1
9	29261	18127.655858101475	0
9	29375	18162.618486761267	1
9	29376	18163.937370536351	0
9	29997	18542.330688065619	1
9	30009	18547.611150718745	0
9	33885	20884.432322213095	1
9	33889	20888.116655010695	0
9	33897	20890.101856418392	1
9	33899	20890.410326587208	0
9	35960	21999.685207546848	1
9	35964	22003.431389770659	0
9	37900	23324.644466508938	1
9	37901	23327.248579465154	0
9	37905	23328.913952342349	1
9	37906	23330.74071638793	0
9	38832	23960.317590249561	1
9	38836	23961.93624224761	0
9	39200	24159.970127662321	1
9	39201	24159.981058664146	0
9	43002	26329.928090305694	1
9	43009	26332.428199395626	0
9	43035	26342.190601086871	1
9	43036	26343.049646387198	0
9	43700	26653.984806793866	1
9	43701	26655.008692586233	0
9	44415	27065.415934176203	1
9	44419	27067.018770747789	0
9	44429	27069.590510650576	1
9	44431	27070.064822298265	0
9	44480	27086.659390989916	1
9	44484	27092.225664836843	0
9	45030	27435.421497498171	1
9	45031	27437.279565247979	0
9	45037	27438.589294120383	1
9	45039	27438.665792245809	0
9	45274	27553.919944158597	1
9	45276	27554.35344747387	0
9	45286	27556.883411721168	1
9	45288	27556.887014747283	0
9	46450	28327.688315912136	1
9	46457	28330.473257884475	2
9	46461	28330.855150038801	1
9	46463	28330.900643926515	0
9	46479	28336.699932643864	1
9	46481	28337.888449006879	0
9	48480	29641.633162278204	1
9	48481	29643.315004547198	0
9	48900	29871.680255554708	1
9	48901	29871.978671745154	0
9	48912	29874.759612481053	1
9	48921	29878.874169291991	0

