version 2
run Third_exit_2-8-20191114-11:42:52-8987
attr configname Third_exit_2
attr datetime 20191114-11:42:52
attr experiment Third_exit_2
attr inifile omnetpp.ini
attr iterationvars ""
attr iterationvarsf ""
attr measurement ""
attr network ResponseTimeNetwork
attr processid 8987
attr repetition 8
attr replication #8
attr resultdir results
attr runnumber 8
attr seedset 8
param **.Source.interArrivalTime exponential(6s)
param **.jobPriority bernoulli(0.8)
param **.PS.serviceTimeU1 "uniform(1.2s, 2.0s)"
param **.PS.serviceTimeU2 "uniform(2.4s, 2.8s)"
param **.SS1.serviceTime exponential(1.4s)
param **.SS2.serviceTime exponential(2s)
param **.PS.exitProbability bernoulli(0.2)

vector 0 ResponseTimeNetwork.QueueU1 queueLength:vector ETV
attr interpolationmode sample-hold
attr title "queue length, vector"
vector 1 ResponseTimeNetwork.sink lifeTimeU1:vector ETV
attr interpolationmode none
attr title "lifetime of arrived jobs U1, vector"
attr unit s
vector 2 ResponseTimeNetwork.sink totalServiceTimeU1:vector ETV
attr interpolationmode none
attr title "the total time spent  by arrived jobs U1, vector"
attr unit s
vector 3 ResponseTimeNetwork.sink lifeTime:vector ETV
attr interpolationmode none
attr title "lifetime of arrived jobs, vector"
attr unit s
vector 4 ResponseTimeNetwork.sink totalServiceTime:vector ETV
attr interpolationmode none
attr title "the total time spent  by arrived jobs, vector"
attr unit s
vector 5 ResponseTimeNetwork.sink lifeTimeU2:vector ETV
attr interpolationmode none
attr title "lifetime of arrived jobs U2, vector"
attr unit s
vector 6 ResponseTimeNetwork.sink totalServiceTimeU2:vector ETV
attr interpolationmode none
attr title "the total time spent  by arrived jobs U2, vector"
attr unit s
vector 7 ResponseTimeNetwork.QueueU2 queueLength:vector ETV
attr interpolationmode sample-hold
attr title "queue length, vector"
vector 8 ResponseTimeNetwork.SS1 queueLength:vector ETV
attr interpolationmode sample-hold
attr title "queue length, vector"
vector 9 ResponseTimeNetwork.SS2 queueLength:vector ETV
attr interpolationmode sample-hold
attr title "queue length, vector"
0	10835	10003.389244410534	1
0	10836	10004.11981563453	0
0	10850	10021.187657368059	1
0	10851	10021.827452577174	0
0	10860	10024.251142404654	1
0	10861	10025.292888460019	0
0	10892	10049.502176429637	1
0	10893	10049.89366356853	0
0	10900	10051.447053114054	1
0	10902	10052.36882989995	2
0	10903	10052.497294325861	1
0	10906	10053.704507757458	0
0	10985	10161.297080946716	1
0	10988	10162.384458218172	0
0	11020	10187.941146724731	1
0	11023	10189.065971937683	0
0	11035	10192.825456614374	1
0	11036	10194.475755650734	0
0	11150	10351.9809432131	1
0	11151	10352.043457540904	0
0	11170	10359.450914974325	1
0	11171	10361.137626095424	0
0	11185	10366.449386683401	1
0	11186	10367.476619634788	0
0	11195	10372.501612739667	1
0	11196	10372.779084188066	0
0	11210	10390.849951699707	1
0	11211	10391.410159574734	0
0	11215	10392.235632707384	1
0	11216	10392.969570580969	0
0	11225	10396.078814505753	1
0	11226	10396.916681658859	0
0	11230	10398.346058732338	1
0	11231	10398.858237735751	0
0	11235	10400.272627194908	1
0	11236	10400.428172223094	0
0	11255	10434.822796179869	1
0	11256	10436.084062077735	0
0	11267	10440.811626874522	1
0	11268	10440.987442425807	0
0	11290	10466.747424853807	1
0	11291	10466.76796630216	0
0	11295	10467.11715701484	1
0	11296	10467.978704061407	0
0	11345	10541.390564504894	1
0	11346	10542.651362642102	0
0	11350	10542.871662926891	1
0	11351	10544.572545064256	0
0	11355	10545.312279815442	1
0	11356	10546.423867432975	0
0	11360	10547.561576234358	1
0	11361	10548.353328659215	0
0	11370	10551.566328503039	1
0	11371	10551.629919720373	0
0	11375	10551.903470859602	1
0	11376	10553.465784300982	0
0	11387	10565.260848970485	1
0	11388	10565.558339723909	0
0	11392	10566.335764217663	1
0	11393	10566.875775997119	0
0	11400	10568.649968089101	1
0	11401	10570.015151028486	0
0	11440	10624.008831534371	1
0	11442	10624.198501312955	2
0	11445	10625.198152716514	1
0	11448	10627.181351199616	0
0	11455	10628.521985749909	1
0	11456	10630.208408732209	0
0	11460	10630.425018182007	1
0	11461	10631.452454552482	0
0	11570	10746.115843839784	1
0	11571	10746.665899624546	0
0	11575	10747.393444322722	1
0	11576	10748.029192607907	0
0	11595	10773.970961064075	1
0	11596	10774.558294112635	0
0	11600	10775.527387874448	1
0	11601	10776.098618165058	0
0	11610	10781.747627587162	1
0	11611	10783.398025600881	0
0	11630	10801.015468729917	1
0	11631	10801.429086105998	0
0	11665	10854.819335773282	1
0	11666	10855.421561935978	0
0	11685	10891.621353477547	1
0	11686	10892.440404969262	0
0	11690	10893.210356803038	1
0	11691	10893.940315282898	0
0	11715	10913.988578809281	1
0	11716	10914.000380134539	0
0	11720	10915.502973156364	1
0	11721	10915.578295580068	0
0	11735	10936.377086022225	1
0	11736	10937.090049874074	0
0	11740	10937.339011653019	1
0	11741	10938.412546247839	0
0	11805	10994.217018587778	1
0	11806	10995.019389576526	0
0	11810	10995.660940663411	1
0	11812	10995.86071830247	2
0	11813	10996.757793282406	1
0	11817	10997.07430974889	2
0	11820	10998.636711331704	1
0	11823	11000.580185411186	0
0	11827	11000.754854255603	1
0	11828	11002.465586330616	0
0	11832	11003.634390649164	1
0	11833	11003.882461142414	0
0	11840	11005.945488286413	1
0	11841	11007.107505273134	0
0	11845	11008.315929630223	1
0	11846	11008.496843486153	0
0	11855	11016.243806138501	1
0	11856	11017.555387192356	0
0	11885	11041.27454955683	1
0	11886	11042.759424851358	0
0	11900	11049.162078724226	1
0	11903	11051.017842584562	0
0	11945	11095.342906411295	1
0	11946	11095.398685979352	0
0	11950	11095.498243801586	1
0	11951	11097.076329112493	0
0	11955	11097.320665452519	1
0	11957	11097.518731809967	2
0	11958	11098.848622325503	1
0	11961	11100.754212657616	0
0	11995	11124.294847338548	1
0	11996	11125.637317925596	0
0	12000	11125.77262583407	1
0	12001	11127.076295140476	0
0	12025	11146.672732937792	1
0	12026	11147.956193287441	0
0	12045	11158.967402612358	1
0	12046	11159.158954931817	0
0	12115	11227.043187153735	1
0	12116	11228.38725009567	0
0	12120	11229.873818082908	1
0	12121	11229.876958421682	0
0	12145	11250.497571021234	1
0	12146	11251.544165938552	0
0	12180	11289.238586256318	1
0	12181	11290.129314105061	0
0	12205	11300.967503682637	1
0	12206	11301.532993660518	0
0	12210	11302.40274148583	1
0	12211	11303.05656205772	0
0	12220	11307.469754365481	1
0	12221	11308.037641461695	0
0	12225	11309.49274686297	1
0	12227	11309.64554540676	2
0	12228	11309.658054410609	1
0	12231	11310.974050140324	0
0	12250	11338.358665082682	1
0	12251	11339.41068902545	0
0	12255	11340.123223640983	1
0	12256	11341.010736275728	0
0	12290	11369.939905338292	1
0	12291	11371.525082308412	0
0	12345	11407.730791138834	1
0	12346	11407.820742557615	0
0	12350	11408.412045527404	1
0	12351	11409.141561745338	0
0	12375	11438.221462975726	1
0	12376	11439.79180860461	0
0	12380	11441.244098914506	1
0	12381	11441.694778906715	0
0	12420	11467.883643773015	1
0	12421	11469.016983549604	0
0	12430	11472.805584687767	1
0	12431	11474.263858120412	0
0	12455	11524.117365083651	1
0	12456	11524.907749403822	0
0	12460	11525.066981140487	1
0	12461	11526.168572719018	0
0	12475	11567.427596926979	1
0	12476	11568.459711491381	0
0	12480	11570.004491420269	1
0	12482	11570.07009843018	2
0	12483	11570.348258683336	1
0	12486	11572.29472454532	0
0	12490	11572.653318595631	1
0	12491	11573.839218819206	0
0	12495	11574.726005018711	1
0	12496	11575.259501404752	0
0	12500	11575.525536285893	1
0	12501	11576.504381113564	0
0	12510	11605.655530836744	1
0	12511	11606.084224802411	0
0	12515	11607.671577544833	1
0	12516	11608.030623770102	0
0	12530	11612.033067819444	1
0	12531	11613.524032537611	0
0	12545	11626.583098156503	1
0	12546	11627.387735339243	0
0	12560	11636.503909674354	1
0	12561	11638.18491545823	0
0	12575	11648.23838978572	1
0	12576	11648.911940763543	0
0	12592	11661.211732656093	1
0	12593	11661.485275924626	0
0	12617	11672.91464124845	1
0	12618	11674.11986447398	0
0	12630	11677.383569661821	1
0	12631	11678.742822001314	0
0	12645	11697.062325228932	1
0	12646	11697.072819181519	0
0	12650	11697.142415009788	1
0	12652	11698.855959859734	2
0	12653	11698.909712187002	1
0	12656	11700.31681077181	0
0	12690	11749.279710578388	1
0	12691	11750.242539347886	0
0	12710	11760.461551059673	1
0	12711	11760.621928595177	0
0	12770	11815.76800086627	1
0	12771	11816.55441157927	0
0	12775	11817.12924336231	1
0	12776	11818.303933507178	0
0	12785	11821.111685080325	1
0	12786	11821.464267035498	0
0	12790	11823.131972444835	1
0	12791	11823.330789678282	0
0	12855	11878.846597761514	1
0	12856	11878.861342463559	0
0	12880	11905.697977155225	1
0	12881	11906.499080757859	0
0	12885	11907.252284575945	1
0	12886	11907.881582997615	0
0	12895	11910.563525505318	1
0	12897	11911.457192528066	2
0	12898	11911.9320007983	1
0	12901	11913.652807510585	0
0	12960	11985.059395328577	1
0	12962	11985.622303737041	2
0	12963	11986.019253791976	1
0	12967	11986.509059337465	2
0	12968	11987.527794771563	1
0	12971	11989.3448019148	0
0	12975	11990.044920051844	1
0	12976	11990.883409213383	0
0	13060	12074.719212788877	1
0	13061	12074.918892829597	0
0	13070	12080.804530115973	1
0	13071	12080.992673036094	0
0	13100	12116.074725134729	1
0	13101	12116.811475548061	0
0	13145	12158.184377452513	1
0	13146	12159.937250104648	0
0	13150	12161.331623319696	1
0	13151	12161.676362521862	0
0	13205	12211.069969823737	1
0	13206	12211.674851173258	0
0	13235	12247.234198076146	1
0	13236	12248.226661936045	0
0	13245	12249.66342118964	1
0	13247	12249.9677770083	2
0	13249	12250.320655749604	3
0	13251	12250.832207415766	4
0	13252	12250.953009526002	3
0	13255	12252.208299764934	2
0	13258	12253.786181989255	1
0	13261	12255.724163176621	0
0	13335	12336.132420393149	1
0	13336	12336.78994995352	0
0	13355	12354.185706823264	1
0	13357	12354.511768958834	2
0	13358	12355.176629940542	1
0	13361	12356.457348021428	0
0	13365	12357.363136833646	1
0	13366	12358.41472736274	0
0	13380	12381.37425347527	1
0	13381	12382.420147814203	0
0	13485	12490.695965198857	1
0	13486	12491.735721845367	0
0	13495	12495.725229696992	1
0	13496	12495.937216535339	0
0	13500	12496.577736202654	1
0	13501	12497.737592810521	0
0	13510	12510.403985637147	1
0	13511	12512.20894871912	0
0	13520	12517.377162552821	1
0	13521	12518.145680781038	0
0	13525	12518.896002157391	1
0	13526	12519.733208991358	0
0	13575	12572.307792454664	1
0	13576	12573.777015367558	0
0	13590	12590.781687623127	1
0	13591	12592.537760450157	0
0	13630	12630.07080838897	1
0	13631	12631.097477962051	0
0	13635	12631.250652821854	1
0	13636	12633.094897771415	0
0	13640	12633.824352781789	1
0	13641	12634.977580388424	0
0	13700	12684.042724965221	1
0	13701	12684.842652968166	0
0	13710	12687.784553926149	1
0	13711	12688.354652658401	0
0	13780	12774.169050846941	1
0	13781	12775.285655783838	0
0	13840	12840.819178301833	1
0	13841	12841.528774380763	0
0	13850	12850.107169716672	1
0	13851	12850.195460245901	0
0	13890	12888.849300766257	1
0	13891	12889.48630771984	0
0	13905	12903.099188742784	1
0	13906	12903.916008800787	0
0	13915	12908.02511831595	1
0	13916	12909.53087318251	0
0	13920	12910.156068904856	1
0	13921	12910.951199985017	0
0	13930	12914.632733715223	1
0	13931	12914.817824693011	0
0	13960	12952.305534192157	1
0	13961	12953.03461510023	0
0	13965	12954.02835435449	1
0	13968	12954.802141454126	0
0	13980	12957.829088995917	1
0	13982	12957.933576303315	2
0	13983	12959.006638042684	1
0	13986	12960.269305215459	0
0	13995	12965.941357079477	1
0	13996	12966.030567852623	0
0	14010	12970.716684443292	1
0	14012	12970.817803048074	2
0	14014	12970.883122952469	3
0	14015	12971.83162697612	2
0	14018	12973.148123906391	1
0	14021	12975.077549113171	0
0	14035	12985.034275438454	1
0	14036	12986.185556708975	0
0	14055	13002.905329634529	1
0	14056	13004.079121526917	0
0	14105	13046.181302959822	1
0	14107	13047.216165135417	2
0	14108	13047.837310562426	1
0	14111	13049.066175453136	0
0	14120	13051.365339944799	1
0	14122	13052.264165930508	2
0	14123	13052.409478465053	1
0	14126	13053.844499462056	0
0	14130	13054.092449822405	1
0	14131	13055.384073326881	0
0	14150	13094.633206791232	1
0	14151	13095.593565997484	0
0	14155	13095.794469784426	1
0	14156	13096.888990655544	0
0	14160	13097.728566679494	1
0	14161	13098.570536840523	0
0	14165	13098.710796478434	1
0	14166	13099.789937323334	0
0	14185	13124.132146599992	1
0	14188	13124.941206213195	0
0	14230	13198.309039674719	1
0	14231	13199.176249165178	0
0	14235	13200.115502669399	1
0	14236	13200.461775518858	0
0	14270	13232.643517168543	1
0	14271	13232.802911691204	0
0	14310	13269.293741731795	1
0	14311	13270.752727681913	0
0	14320	13276.24217482157	1
0	14321	13276.905674051871	0
0	14340	13298.699465827749	1
0	14341	13299.256930209563	0
0	14370	13313.44866976925	1
0	14371	13315.186363548131	0
0	14375	13315.356813446483	1
0	14376	13316.594270335601	0
0	14385	13320.146281186374	1
0	14386	13320.767156424803	0
0	14415	13342.954256398869	1
0	14417	13343.098688757392	2
0	14418	13343.754368346882	1
0	14422	13344.121239011394	2
0	14423	13345.611864069988	1
0	14427	13346.100634150562	2
0	14429	13347.159670661279	3
0	14430	13347.285446495888	2
0	14434	13348.07946097826	3
0	14435	13348.866182650206	2
0	14439	13349.939387546202	3
0	14440	13350.717028881749	2
0	14443	13352.237027304014	1
0	14447	13352.337463669792	2
0	14448	13354.047905746801	1
0	14451	13355.33341506063	0
0	14470	13366.602703978133	1
0	14473	13367.495682986269	0
0	14490	13383.362437951918	1
0	14491	13384.224438630147	0
0	14495	13384.701470687539	1
0	14496	13385.440224685436	0
0	14500	13385.753612023634	1
0	14502	13386.280155365883	2
0	14503	13387.362256840533	1
0	14507	13388.003967929774	2
0	14508	13388.634803417242	1
0	14511	13389.937572366475	0
0	14590	13480.307491374872	1
0	14591	13480.604098346623	0
0	14600	13496.392256754995	1
0	14601	13497.453932211092	0
0	14605	13497.814807211889	1
0	14606	13498.694349499895	0
0	14690	13623.117111624288	1
0	14691	13624.70884022352	0
0	14695	13625.324284663229	1
0	14696	13625.941380658119	0
0	14730	13665.114599858459	1
0	14731	13665.275484121508	0
0	14750	13681.710215265952	1
0	14751	13682.342745844699	0
0	14755	13683.274283515615	1
0	14756	13684.235976330988	0
0	14810	13733.516248467397	1
0	14811	13733.85863279181	0
0	14815	13734.311467808754	1
0	14817	13735.040937016763	2
0	14818	13735.581928678252	1
0	14822	13736.550695252782	2
0	14823	13736.879300252371	1
0	14826	13738.730545270466	0
0	14865	13784.369125238402	1
0	14867	13784.394272196352	2
0	14869	13784.453404353011	3
0	14870	13784.927287481752	2
0	14874	13785.184887174495	3
0	14875	13786.857149213207	2
0	14878	13788.34141445293	1
0	14881	13789.932369343032	0
0	14890	13791.795056350192	1
0	14893	13793.310793705518	0
0	14897	13794.834506910432	1
0	14898	13795.227398789721	0
0	14920	13821.297122157694	1
0	14921	13822.121203135313	0
0	14940	13841.377046390198	1
0	14941	13841.530576088095	0
0	14960	13858.78106455077	1
0	14961	13859.616482419763	0
0	14965	13860.585512403658	1
0	14966	13860.84592540903	0
0	15020	13892.04484411673	1
0	15021	13892.973572481181	0
0	15035	13898.439259237322	1
0	15036	13899.448279170439	0
0	15040	13900.211923707016	1
0	15041	13901.043324549243	0
0	15070	13916.538219688485	1
0	15071	13917.526297439875	0
0	15075	13918.475281704727	1
0	15077	13919.060645244942	2
0	15078	13919.454934438186	1
0	15083	13920.905928822475	0
0	15100	13926.153561890093	1
0	15101	13927.368955500886	0
0	15130	13969.068493885828	1
0	15131	13969.072674567	0
0	15145	13979.474650941188	1
0	15146	13980.084307566199	0
0	15150	13981.146432501131	1
0	15151	13982.041946685601	0
0	15190	14007.922049274057	1
0	15191	14009.016126469132	0
0	15210	14030.617944966236	1
0	15211	14031.616613582519	0
0	15215	14032.753862547822	1
0	15218	14033.06785027608	0
0	15225	14035.707045735974	1
0	15226	14036.777290656787	0
0	15230	14036.983630420446	1
0	15231	14038.670258888972	0
0	15290	14088.881191888786	1
0	15292	14088.98460178705	2
0	15293	14090.02431643384	1
0	15296	14091.354138813749	0
0	15315	14102.588266057948	1
0	15317	14103.193921573015	2
0	15318	14104.266612242223	1
0	15321	14105.663567549424	0
0	15325	14105.992892698051	1
0	15326	14107.648341449411	0
0	15360	14144.493851996081	1
0	15363	14145.826227784988	0
0	15367	14147.519644825803	1
0	15368	14147.567621570725	0
0	15375	14150.184761732032	1
0	15376	14151.131468194436	0
0	15425	14255.591720395855	1
0	15426	14255.648266040662	0
0	15430	14256.542034900308	1
0	15431	14257.377646126168	0
0	15475	14369.063302894607	1
0	15476	14370.487040800679	0
0	15500	14386.340091757183	1
0	15501	14386.845595576024	0
0	15510	14389.486052519868	1
0	15511	14390.392619759918	0
0	15515	14390.468413851333	1
0	15516	14392.307670474008	0
0	15520	14393.156493971067	1
0	15521	14393.947277346768	0
0	15530	14395.675912117721	1
0	15531	14397.356362059221	0
0	15555	14421.436708892122	1
0	15556	14421.447453098984	0
0	15600	14472.921956531503	1
0	15601	14473.969045332807	0
0	15605	14474.082546843623	1
0	15606	14475.628709869261	0
0	15620	14493.960572349384	1
0	15621	14494.314817335356	0
0	15680	14556.117839858289	1
0	15681	14556.411161775233	0
0	15687	14557.734419482672	1
0	15688	14557.816360128948	0
0	15715	14586.441777236891	1
0	15716	14587.642280022394	0
0	15720	14588.91735616012	1
0	15721	14588.985200800154	0
0	15725	14589.630839493914	1
0	15726	14590.653871411051	0
0	15745	14599.73398546851	1
0	15747	14599.860147175642	2
0	15749	14600.501100024106	3
0	15750	14600.517091463135	2
0	15753	14601.743373621629	1
0	15758	14603.610706633889	0
0	15770	14608.715449036483	1
0	15771	14609.607172249515	0
0	15780	14611.65773870698	1
0	15781	14612.864270058532	0
0	15797	14626.946574811641	1
0	15798	14627.601527345919	0
0	15825	14641.531777948858	1
0	15828	14642.293822462173	0
0	15832	14642.453576953286	1
0	15833	14643.769164812812	0
0	15839	14645.425120668687	1
0	15840	14645.642001675503	0
0	15847	14647.796513169907	1
0	15848	14648.161279769117	0
0	15855	14649.52157775435	1
0	15857	14650.420246869882	2
0	15858	14651.124709090093	1
0	15863	14652.683050396355	0
0	15875	14685.74753151751	1
0	15876	14686.145721131227	0
0	15885	14702.29293723394	1
0	15886	14703.12041523408	0
0	15905	14711.958231845109	1
0	15906	14712.193492504308	0
0	15910	14713.42601432153	1
0	15911	14713.906854877906	0
0	15915	14713.911915515836	1
0	15916	14715.450566219265	0
0	15920	14716.136334351132	1
0	15921	14717.197611971671	0
0	15925	14717.464322642012	1
0	15926	14718.91856668769	0
0	15930	14719.615010697013	1
0	15931	14720.85176451868	0
0	15950	14731.503888508574	1
0	15951	14732.257816188647	0
0	15965	14738.406064397854	1
0	15966	14739.310434022698	0
0	15990	14769.695334522828	1
0	15992	14770.687939220378	2
0	15993	14771.485160004692	1
0	15997	14772.991796909007	2
0	15998	14773.144661137061	1
0	16001	14774.825853386121	0
0	16030	14807.036318732801	1
0	16031	14807.059749589977	0
0	16035	14807.626051228929	1
0	16036	14808.626585435053	0
0	16060	14838.201501638281	1
0	16061	14838.348065884177	0
0	16085	14863.128910604992	1
0	16086	14863.989427532417	0
0	16090	14864.077264159759	1
0	16092	14864.862170373318	2
0	16093	14865.707440140632	1
0	16096	14867.6468590399	0
0	16130	14897.610343508914	1
0	16131	14898.022895030428	0
0	16145	14907.339317123844	1
0	16146	14908.147217314373	0
0	16155	14911.266684088454	1
0	16156	14912.448576575226	0
0	16160	14912.682961436097	1
0	16161	14913.781257847964	0
0	16215	14955.874711121682	1
0	16218	14957.375265534104	0
0	16255	14985.620706235465	1
0	16257	14985.801468450657	2
0	16258	14987.232632615844	1
0	16264	14988.1338387587	2
0	16265	14988.810291839631	1
0	16268	14990.366908355297	0
0	16275	14993.226889615532	1
0	16276	14993.282921129705	0
0	16285	14996.714423419647	1
0	16286	14998.132996237194	0
0	16290	14998.480909103737	1
0	16291	14999.452398168957	0
0	16310	15024.939638016269	1
0	16311	15025.902834464374	0
0	16315	15026.483453591793	1
0	16316	15027.545724627326	0
0	16327	15032.807950719021	1
0	16328	15033.576151548347	0
0	16334	15033.624415216398	1
0	16335	15035.190538142456	0
0	16375	15120.067714507365	1
0	16376	15120.374848171071	0
0	16380	15120.569799671579	1
0	16382	15120.702305577652	2
0	16383	15121.904336363197	1
0	16386	15123.392595369489	0
0	16390	15123.628748150141	1
0	16391	15124.910325202839	0
0	16410	15134.136344555545	1
0	16411	15134.533084467065	0
0	16435	15153.66130003593	1
0	16437	15153.826494886257	2
0	16438	15153.832065153099	1
0	16441	15155.328110086709	0
0	16460	15166.787016703886	1
0	16462	15167.148666938388	2
0	16463	15167.741365673463	1
0	16467	15168.417539850644	2
0	16468	15169.382080088253	1
0	16471	15171.068988616834	0
0	16475	15171.085253030509	1
0	16476	15172.299229497346	0
0	16480	15173.190861746816	1
0	16482	15173.675119736446	2
0	16483	15174.081673644739	1
0	16486	15175.456635040301	0
0	16495	15177.845455567451	1
0	16496	15179.015000464714	0
0	16500	15179.757500943433	1
0	16501	15180.513888901605	0
0	16525	15192.20667732368	1
0	16526	15193.942089149859	0
0	16540	15199.579592178753	1
0	16541	15200.318712943641	0
0	16550	15214.994618751418	1
0	16551	15216.189904298635	0
0	16565	15235.051989341585	1
0	16566	15236.901999051717	0
0	16570	15237.253246118707	1
0	16571	15238.736801051569	0
0	16615	15291.443046913855	1
0	16616	15292.299952459146	0
0	16630	15322.323895072774	1
0	16632	15322.645306463248	2
0	16633	15323.406884945274	1
0	16636	15325.391492778898	0
0	16640	15326.540887811752	1
0	16641	15327.15316930534	0
0	16650	15329.252933023197	1
0	16651	15330.873978894623	0
0	16655	15331.283727365971	1
0	16656	15332.638010059157	0
0	16660	15333.120741370293	1
0	16661	15334.414929184364	0
0	16665	15334.535222382084	1
0	16667	15336.109024370383	2
0	16668	15336.301111775124	1
0	16671	15337.876065166527	0
0	16690	15356.291684965005	1
0	16691	15356.501050233037	0
0	16710	15367.816898717809	1
0	16711	15368.371340450577	0
0	16760	15420.51098199393	1
0	16761	15421.154975908807	0
0	16765	15421.75321491746	1
0	16767	15422.393409395558	2
0	16768	15423.079737364313	1
0	16771	15424.372439477591	0
0	16850	15520.690776161728	1
0	16851	15521.205176789839	0
0	16870	15552.604455641947	1
0	16871	15552.70190385124	0
0	16875	15554.387514062895	1
0	16876	15554.638121331579	0
0	16890	15574.919693281986	1
0	16891	15576.30814758077	0
0	16895	15576.5004226535	1
0	16896	15577.51841719005	0
0	16905	15584.28375947856	1
0	16906	15585.777039099996	0
0	16910	15587.207600920856	1
0	16911	15587.297684310888	0
0	16925	15598.425584663859	1
0	16926	15598.845765942829	0
0	16955	15640.748922034119	1
0	16956	15642.144926140616	0
0	16965	15644.165295755525	1
0	16967	15644.884940118856	2
0	16968	15645.581456396701	1
0	16972	15645.963026207578	2
0	16973	15647.093818502659	1
0	16978	15648.691347503075	0
0	16985	15651.532944575454	1
0	16986	15651.742686247611	0
0	17090	15788.49355756078	1
0	17092	15789.181904948384	2
0	17093	15789.254677749485	1
0	17096	15790.994285645396	0
0	17125	15807.533425532224	1
0	17128	15808.983520833796	0
0	17165	15830.044240105487	1
0	17167	15830.567339309177	2
0	17168	15830.978863317669	1
0	17171	15832.619188887589	0
0	17185	15839.56639467269	1
0	17186	15840.365632981223	0
0	17200	15845.192833822584	1
0	17201	15846.954784189875	0
0	17205	15847.483192596911	1
0	17206	15848.423070601898	0
0	17220	15858.129476067399	1
0	17222	15858.611914654015	2
0	17223	15858.699302409805	1
0	17227	15859.385345836108	2
0	17228	15860.578100389644	1
0	17231	15862.107776364341	0
0	17290	15910.780955942753	1
0	17291	15911.214484823927	0
0	17345	15963.886915299169	1
0	17346	15965.393196617783	0
0	17355	15968.084053367075	1
0	17356	15968.555675036576	0
0	17365	15979.793794327448	1
0	17367	15979.978406902304	2
0	17368	15980.084514708777	1
0	17372	15980.733341177073	2
0	17373	15981.675537367498	1
0	17376	15983.131902703231	0
0	17380	15983.399998621987	1
0	17381	15984.344730161277	0
0	17390	15987.991484670678	1
0	17391	15988.627334949565	0
0	17400	15998.9914098104	1
0	17401	16000.324391931919	0
0	17440	16053.972699918466	1
0	17441	16054.973233988378	0
0	17445	16056.182954810111	1
0	17446	16056.653093835022	0
0	17470	16076.858321699316	1
0	17471	16078.07427755112	0
0	17480	16082.769359498672	1
0	17481	16083.389496638435	0
0	17485	16083.640405259733	1
0	17486	16085.209262599233	0
0	17490	16085.535867014336	1
0	17491	16086.931765583712	0
0	17510	16124.829858490991	1
0	17512	16126.328822697374	2
0	17513	16126.544342895782	1
0	17517	16127.551333988918	2
0	17518	16127.78752041906	1
0	17522	16128.263457923704	2
0	17523	16129.376776015571	1
0	17526	16131.098623138851	0
0	17540	16136.902017880172	1
0	17541	16137.25227166496	0
0	17545	16138.036209814409	1
0	17546	16138.948950010238	0
0	17595	16187.963211278287	1
0	17596	16189.690309478355	0
0	17605	16192.060471178983	1
0	17607	16192.840569180461	2
0	17608	16193.593745373948	1
0	17612	16194.133105026197	2
0	17614	16194.38326509474	3
0	17615	16195.577957711196	2
0	17618	16197.036128295972	1
0	17621	16198.519542208328	0
0	17690	16251.145543816651	1
0	17691	16251.597477704111	0
0	17720	16297.235307184312	1
0	17721	16298.568978587626	0
0	17725	16299.583732185418	1
0	17726	16300.134246819741	0
0	17735	16315.919960276597	1
0	17736	16317.094523306457	0
0	17740	16317.459194634024	1
0	17741	16318.691815547539	0
0	17795	16371.245260365797	1
0	17796	16371.483887747739	0
0	17825	16394.67543639534	1
0	17826	16395.788992562076	0
0	17895	16458.184179057173	1
0	17896	16459.671428748094	0
0	17915	16469.394381835277	1
0	17917	16469.801434144333	2
0	17918	16470.321335702997	1
0	17921	16471.863221411828	0
0	17925	16472.53668372246	1
0	17927	16472.961809363215	2
0	17928	16473.49207260241	1
0	17931	16475.003023246911	0
0	17985	16526.311261708873	1
0	17986	16527.304420157239	0
0	17995	16529.832837402124	1
0	17996	16530.477354361006	0
0	18010	16541.871015373517	1
0	18011	16542.747445876901	0
0	18017	16543.12109129961	1
0	18018	16544.478516106685	0
0	18022	16544.747979508853	1
0	18023	16546.209976536227	0
0	18027	16546.445078095588	1
0	18029	16546.976612692148	2
0	18030	16547.41044786275	1
0	18033	16548.629283965385	0
0	18040	16551.488455261799	1
0	18041	16551.842243154725	0
0	18045	16552.942401461777	1
0	18046	16553.431822367391	0
0	18065	16587.903858889089	1
0	18066	16589.094623003589	0
0	18070	16589.959415242822	1
0	18071	16590.577433910096	0
0	18095	16608.962998103952	1
0	18096	16609.630818540909	0
0	18100	16610.225997814962	1
0	18101	16611.466404763915	0
0	18110	16622.2656497547	1
0	18111	16623.80215735258	0
0	18115	16624.355695213161	1
0	18116	16625.286713477312	0
0	18155	16701.402177228761	1
0	18156	16701.949909093196	0
0	18170	16720.14281637934	1
0	18171	16721.273941860004	0
0	18190	16742.59540959257	1
0	18191	16744.048240575107	0
0	18200	16745.98778414014	1
0	18201	16747.479316266557	0
0	18212	16753.169877667245	1
0	18213	16753.425035046382	0
0	18219	16754.363252648115	1
0	18220	16755.36096578498	0
0	18227	16757.724387539827	1
0	18228	16758.850887030704	0
0	18232	16759.142438594609	1
0	18235	16760.358563167011	0
0	18239	16761.110039399611	1
0	18241	16761.169387878457	2
0	18242	16761.86416168843	1
0	18245	16763.624206883615	0
0	18265	16791.654980695706	1
0	18266	16791.728700397587	0
0	18270	16792.895447948742	1
0	18271	16793.085268881223	0
0	18280	16797.092036289915	1
0	18281	16798.863825833356	0
0	18285	16798.931121881052	1
0	18286	16800.221442086926	0
0	18290	16801.310432298419	1
0	18291	16801.477880445427	0
0	18295	16802.236523846321	1
0	18296	16802.712387820824	0
0	18315	16827.177317441149	1
0	18316	16828.851974354517	0
0	18360	16904.849578539394	1
0	18362	16905.226310549719	2
0	18363	16905.628493632455	1
0	18366	16906.943771055792	0
0	18385	16930.200010222913	1
0	18386	16930.6020665254	0
0	18405	16941.212136008398	1
0	18406	16942.23681285749	0
0	18410	16942.840566759496	1
0	18411	16943.590519698102	0
0	18415	16944.09401265101	1
0	18417	16944.555961460848	2
0	18418	16945.376493679684	1
0	18421	16947.053986822021	0
0	18425	16947.814680585309	1
0	18427	16947.929928411253	2
0	18428	16948.792160897654	1
0	18431	16950.188603462045	0
0	18435	16950.720451480718	1
0	18436	16952.110391253372	0
0	18450	16957.372360827358	1
0	18451	16957.42405408034	0
0	18485	17068.967209634796	1
0	18486	17070.054320720784	0
0	18497	17072.023931577201	1
0	18498	17073.251174005322	0
0	18505	17075.49191117731	1
0	18506	17076.048144320413	0
0	18510	17076.219616109034	1
0	18513	17077.610024345494	0
0	18520	17080.531120349347	1
0	18521	17080.710131789758	0
0	18555	17111.229034309036	1
0	18556	17112.906183793666	0
0	18600	17204.87274824273	1
0	18601	17206.273194816912	0
0	18615	17214.556659372957	1
0	18616	17215.923700121101	0
0	18650	17261.958788437796	1
0	18652	17263.145639782598	2
0	18653	17263.422364983274	1
0	18657	17263.733644730749	2
0	18658	17265.000918072028	1
0	18661	17266.274985813847	0
0	18670	17278.581376205975	1
0	18671	17279.34283378355	0
0	18675	17280.766738642631	1
0	18677	17280.830879706614	2
0	18678	17281.047787539361	1
0	18681	17282.930161350852	0
0	18720	17364.19052838387	1
0	18721	17364.921684126817	0
0	18750	17379.43885492554	1
0	18752	17380.306364784798	2
0	18753	17380.508533758196	1
0	18756	17381.802112359825	0
0	18765	17388.569773874074	1
0	18766	17389.424199190635	0
0	18770	17390.53014623414	1
0	18771	17390.858717647467	0
0	18775	17391.603674775112	1
0	18776	17392.115515730243	0
0	18785	17394.736187708437	1
0	18786	17395.626169305566	0
0	18830	17432.646262434131	1
0	18831	17433.991613747763	0
0	18850	17449.550516103166	1
0	18852	17449.553209293326	2
0	18853	17449.959170791838	1
0	18857	17451.276599971721	2
0	18858	17451.498268229846	1
0	18862	17451.723383290696	2
0	18863	17453.246516913507	1
0	18866	17454.641235084604	0
0	18880	17468.413577241729	1
0	18881	17468.543382630284	0
0	18940	17542.699814358242	1
0	18941	17542.848932192706	0
0	18945	17543.433435908336	1
0	18946	17544.629451625281	0
0	18950	17544.694226831419	1
0	18951	17546.086030695819	0
0	18955	17546.721649806239	1
0	18958	17547.503581158862	0
0	18975	17573.287450143079	1
0	18976	17573.647260439963	0
0	19080	17671.79581479208	1
0	19081	17673.225395585597	0
0	19085	17673.759008356824	1
0	19086	17674.709831935913	0
0	19095	17678.537237196826	1
0	19096	17678.617079429462	0
0	19105	17680.443752771218	1
0	19106	17681.818163474766	0
0	19125	17705.069504211648	1
0	19126	17706.380688168825	0
0	19130	17706.752968363139	1
0	19131	17707.629954194994	0
0	19180	17771.828706316637	1
0	19182	17771.88491815808	2
0	19183	17772.456515674494	1
0	19186	17773.689109003559	0
0	19190	17774.643200483904	1
0	19191	17775.571115120143	0
0	19230	17815.559449509642	1
0	19232	17816.109120508203	2
0	19233	17816.721377643044	1
0	19237	17817.324051194187	2
0	19238	17818.687199313971	1
0	19242	17820.58667806665	2
0	19243	17820.636074929531	1
0	19247	17821.106525018345	2
0	19249	17821.366990392418	3
0	19250	17822.571261781114	2
0	19253	17823.784103744509	1
0	19257	17825.448276008941	2
0	19258	17825.716252213003	1
0	19261	17827.208833585897	0
0	19270	17831.196725809053	1
0	19271	17832.35960789006	0
0	19330	17915.832960683619	1
0	19331	17916.76064700769	0
0	19377	17957.968660860337	1
0	19378	17958.441174793791	0
0	19385	17960.873393372352	1
0	19386	17961.924100640778	0
0	19390	17962.764360939682	1
0	19391	17963.521704903421	0
0	19400	17965.522589767776	1
0	19401	17966.516953625927	0
0	19410	17969.379664832634	1
0	19411	17970.193910454454	0
0	19430	17983.766622935365	1
0	19431	17983.984159742214	0
0	19480	18042.579662976359	1
0	19481	18044.035234392652	0
0	19485	18044.999663513109	1
0	19487	18045.334684859842	2
0	19488	18045.809852847675	1
0	19491	18047.528531340169	0
0	19510	18078.094774133128	1
0	19511	18078.340435653129	0
0	19525	18082.489288778227	1
0	19526	18083.750816838091	0
0	19545	18097.692393436998	1
0	19546	18098.199514273975	0
0	19625	18197.472577678749	1
0	19626	18198.516940929775	0
0	19655	18261.178991215001	1
0	19657	18262.029613395623	2
0	19659	18262.55045213346	3
0	19660	18262.776437309884	2
0	19663	18264.486281242721	1
0	19667	18265.472977589254	2
0	19668	18265.913957104027	1
0	19673	18267.869728250928	0
0	19685	18272.901313537819	1
0	19686	18273.467352178228	0
0	19692	18274.33163255693	1
0	19693	18274.929276967329	0
0	19699	18275.341605772983	1
0	19700	18276.737430178282	0
0	19765	18379.327596416968	1
0	19766	18380.20464492095	0
0	19775	18385.639490663231	1
0	19776	18385.781287439439	0
0	19790	18399.208732765811	1
0	19792	18399.506245238336	2
0	19793	18400.511115372651	1
0	19796	18402.16511483761	0
0	19900	18559.342465603892	1
0	19901	18561.183735160888	0
0	19930	18597.251962595193	1
0	19931	18598.393013520291	0
0	20035	18782.675976400413	1
0	20036	18784.17082571897	0
0	20072	18813.195154184625	1
0	20073	18813.742370312867	0
0	20077	18814.286840704823	1
0	20080	18815.492188514975	0
0	20090	18819.312509194006	1
0	20091	18820.341341501307	0
0	20120	18869.553762832697	1
0	20121	18869.99936366242	0
0	20160	18929.213344510974	1
0	20161	18931.054948873641	0
0	20165	18932.125159086862	1
0	20166	18932.412873097705	0
0	20182	18944.745049222787	1
0	20183	18944.854137994783	0
0	20190	18947.487604919942	1
0	20191	18948.117331495942	0
0	20200	18950.013427672306	1
0	20201	18950.972490039529	0
0	20215	18959.029647815452	1
0	20216	18960.854818894178	0
0	20277	19016.101384928516	1
0	20279	19016.886466049092	2
0	20280	19017.099423687184	1
0	20284	19018.637102779118	2
0	20285	19019.017337669642	1
0	20288	19020.744193881401	0
0	20295	19022.883053900651	1
0	20296	19024.314648528048	0
0	20315	19044.583304713839	1
0	20317	19044.632250425627	2
0	20319	19044.900561926728	3
0	20320	19045.553795804502	2
0	20324	19045.997891403145	3
0	20325	19047.506995253684	2
0	20328	19049.08983870917	1
0	20331	19050.920772528136	0
0	20360	19073.711111127368	1
0	20361	19074.441066466683	0
0	20370	19091.32323830822	1
0	20372	19091.54886034098	2
0	20373	19091.980519782476	1
0	20376	19093.382790142022	0
0	20400	19141.008510969201	1
0	20404	19141.212727478864	2
0	20405	19141.699547914414	1
0	20410	19143.659134944527	0
0	20417	19145.878022003107	1
0	20419	19147.23256202702	2
0	20420	19147.511158847249	1
0	20424	19148.870699498337	2
0	20425	19149.265577096118	1
0	20428	19150.866692525147	0
0	20432	19151.826294293963	1
0	20434	19152.770104621595	2
0	20435	19152.818690651095	1
0	20438	19154.443790404683	0
0	20445	19157.699225298933	1
0	20449	19158.241748564597	2
0	20450	19158.325480405612	1
0	20453	19159.569057787208	0
0	20457	19161.000804350951	1
0	20458	19161.247298515214	0
0	20462	19161.640548298062	1
0	20463	19162.743977314791	0
0	20480	19169.984219534486	1
0	20481	19170.94590319164	0
0	20500	19186.060886492341	1
0	20501	19187.350223316868	0
0	20510	19201.372043644064	1
0	20511	19201.643753997213	0
0	20557	19269.442720270044	1
0	20558	19270.264204435547	0
0	20590	19308.516522903945	1
0	20591	19308.939704964992	0
0	20625	19345.679130001197	1
0	20626	19346.493587151902	0
0	20650	19360.040575824534	1
0	20651	19361.070488221525	0
0	20670	19387.117837488228	1
0	20671	19388.628408320953	0
0	20677	19389.924092767912	1
0	20678	19389.929951057915	0
0	20685	19392.839486327264	1
0	20686	19393.555348562968	0
0	20710	19406.12930777396	1
0	20711	19406.872775339014	0
0	20720	19417.951204014488	1
0	20721	19419.583909987606	0
0	20725	19420.686581626882	1
0	20727	19421.107096996681	2
0	20728	19421.245900402725	1
0	20732	19421.373777254143	2
0	20733	19422.618271321938	1
0	20736	19424.510341943749	0
0	20747	19427.133884533285	1
0	20749	19427.165964816919	2
0	20750	19428.023034856417	1
0	20753	19429.676874429681	0
0	20757	19430.763721337969	1
0	20758	19431.559134720401	0
0	20765	19433.141663095869	1
0	20766	19434.271316138231	0
0	20795	19461.883629483127	1
0	20796	19462.375822488487	0
0	20870	19533.93881999507	1
0	20871	19534.77704317403	0
0	20890	19560.937708729054	1
0	20891	19562.422538362663	0
0	20895	19563.014718821069	1
0	20896	19564.034797745045	0
0	20910	19569.09555123401	1
0	20912	19569.167976096656	2
0	20913	19570.129206566639	1
0	20916	19571.900204068735	0
0	20920	19572.957575302845	1
0	20921	19573.301930065207	0
0	20945	19591.854081809645	1
0	20946	19592.410736411083	0
0	20990	19658.661972932667	1
0	20991	19659.710582416888	0
0	20995	19660.600226255974	1
0	20996	19661.181435982335	0
0	21000	19661.601959116257	1
0	21001	19662.778811590012	0
0	21010	19678.4628528343	1
0	21011	19679.138638433919	0
0	21060	19754.467555121282	1
0	21061	19755.650684959158	0
0	21100	19791.370295838749	1
0	21101	19792.91601930893	0
0	21105	19793.998025056253	1
0	21106	19794.377450447893	0
0	21110	19795.19060263588	1
0	21111	19795.861815175219	0
0	21120	19803.042111396926	1
0	21121	19804.373142225654	0
0	21137	19812.271410182023	1
0	21138	19812.292582190346	0
0	21142	19813.053454631631	1
0	21143	19814.257526572172	0
0	21147	19814.338503848751	1
0	21148	19815.519656357292	0
0	21152	19815.802678422629	1
0	21153	19817.096572366666	0
0	21157	19817.507690505806	1
0	21160	19818.926017769549	0
0	21167	19821.084972786182	1
0	21169	19821.673307247076	2
0	21170	19822.882399413113	1
0	21173	19824.472636369553	0
0	21185	19829.091094526548	1
0	21186	19830.031486043644	0
0	21200	19863.963082449111	1
0	21202	19864.300447289522	2
0	21203	19865.326679762441	1
0	21207	19866.352093446301	2
0	21208	19866.556319392647	1
0	21211	19868.31180131248	0
0	21285	19939.078388955519	1
0	21286	19940.450885708773	0
0	21295	19949.04642186243	1
0	21296	19949.063331353412	0
0	21300	19949.897612516931	1
0	21301	19950.706912724608	0
0	21310	19953.73183569957	1
0	21311	19954.117548044539	0
0	21360	19975.874070454928	1
0	21361	19976.646674532994	0
0	21370	20002.411315606386	1
0	21371	20003.390704539186	0
0	21385	20022.834099458849	1
0	21386	20024.07933423356	0
0	21405	20044.612450045932	1
0	21406	20045.051544566777	0
0	21445	20078.489010757828	1
0	21446	20079.871531369235	0
0	21455	20083.858313368434	1
0	21456	20084.088799772362	0
0	21475	20093.314318891826	1
0	21476	20094.1988983993	0
0	21490	20123.436361769722	1
0	21491	20124.190217661523	0
0	21500	20127.165997988646	1
0	21501	20127.308057726114	0
0	21505	20128.85608805435	1
0	21506	20129.042294121846	0
0	21525	20142.359595685668	1
0	21526	20143.027496954759	0
0	21530	20144.247907165593	1
0	21531	20144.306634874602	0
0	21535	20145.232787820452	1
0	21536	20145.909616859776	0
0	21580	20209.029341244509	1
0	21581	20209.251480314926	0
0	21595	20225.771586770145	1
0	21596	20227.096414943199	0
0	21600	20227.694299332845	1
0	21601	20229.055760569099	0
0	21620	20260.863969443006	1
0	21621	20261.273002916924	0
0	21625	20261.671230061215	1
0	21626	20263.178330933838	0
0	21635	20265.74857560455	1
0	21636	20266.921165478507	0
0	21650	20278.939952175558	1
0	21651	20279.994612243691	0
0	21660	20283.63357087297	1
0	21661	20284.007239229765	0
0	21697	20304.628362795562	1
0	21698	20304.855431424187	0
0	21710	20312.544840493386	1
0	21711	20313.67769311484	0
0	21715	20313.960614035951	1
0	21717	20314.972240169675	2
0	21718	20315.196746179872	1
0	21721	20316.899805741981	0
0	21740	20332.936975035274	1
0	21741	20334.28704290497	0
0	21795	20398.234402111167	1
0	21796	20399.43665443925	0
0	21810	20405.701502887671	1
0	21812	20406.824651212004	2
0	21813	20407.197640153606	1
0	21817	20407.381687132371	2
0	21818	20409.177997013394	1
0	21822	20409.958177016896	2
0	21824	20410.543856337955	3
0	21825	20410.800264700528	2
0	21829	20411.343399084684	3
0	21830	20412.77572494692	2
0	21833	20414.487267293621	1
0	21837	20414.670698485775	2
0	21838	20415.738926279012	1
0	21842	20416.57353849468	2
0	21844	20417.520255606307	3
0	21845	20417.537093337465	2
0	21848	20419.138032203194	1
0	21851	20420.892059621427	0
0	21855	20421.450991893987	1
0	21856	20422.654403579633	0
0	21865	20426.40990307994	1
0	21866	20426.456788918516	0
0	21870	20426.711033113693	1
0	21872	20427.12669123031	2
0	21873	20428.124277699879	1
0	21876	20429.872737382493	0
0	21895	20457.993655030222	1
0	21897	20458.050711363977	2
0	21898	20458.383976126233	1
0	21901	20459.961178590314	0
0	21910	20467.395381392848	1
0	21911	20468.124138973222	0
0	21945	20490.451599027668	1
0	21946	20490.719973594154	0
0	21950	20492.281100027349	1
0	21951	20492.595914512145	0
0	21990	20547.10989277021	1
0	21991	20547.52090656782	0
0	21995	20548.496907149508	1
0	21997	20548.831499004603	2
0	21999	20548.999019119362	3
0	22000	20549.014920340352	2
0	22006	20549.69301311197	3
0	22007	20550.578541729659	2
0	22011	20551.502081923599	3
0	22012	20552.096691187531	2
0	22015	20553.385838005379	1
0	22019	20553.699024793638	2
0	22021	20554.66027506915	3
0	22022	20554.827577781178	2
0	22025	20556.490055424221	1
0	22029	20556.939845663036	2
0	22030	20558.08734648066	1
0	22034	20558.618508189281	2
0	22036	20558.952692556473	3
0	22037	20559.845214869514	2
0	22040	20561.592420016661	1
0	22043	20563.384399349861	0
0	22060	20569.937266034202	1
0	22061	20570.932573961779	0
0	22075	20597.082610988525	1
0	22076	20598.201798249662	0
0	22085	20601.004917106543	1
0	22086	20601.598972930876	0
0	22095	20604.713251324867	1
0	22096	20605.371762947971	0
0	22110	20639.155710559636	1
0	22112	20640.114690189263	2
0	22113	20640.674752215492	1
0	22116	20641.951688835035	0
0	22130	20647.305699622361	1
0	22131	20649.134042516822	0
0	22135	20649.646535597914	1
0	22136	20651.125774824718	0
0	22140	20651.394158945944	1
0	22141	20652.738324039901	0
0	22185	20723.260260845411	1
0	22187	20723.556316384451	2
0	22188	20724.617717553004	1
0	22191	20726.043896302841	0
0	22195	20726.491507134879	1
0	22196	20727.960373161621	0
0	22210	20770.026337770304	1
0	22211	20771.472827185699	0
0	22230	20783.097847652305	1
0	22231	20784.571516436891	0
0	22255	20824.974429452075	1
0	22256	20826.092046005094	0
0	22260	20826.60327738692	1
0	22261	20827.544855667093	0
0	22265	20828.376127523038	1
0	22266	20829.155263089017	0
0	22270	20830.784094599627	1
0	22271	20831.046329719947	0
0	22275	20832.797256875399	1
0	22276	20833.011469962635	0
0	22340	20899.516735413392	1
0	22341	20900.043736207962	0
0	22345	20901.402551311632	1
0	22346	20901.956307559565	0
0	22355	20908.355222991731	1
0	22356	20908.466321504599	0
0	22365	20910.602270075556	1
0	22368	20911.387368089602	0
0	22372	20911.87615794011	1
0	22373	20913.368713783742	0
0	22410	20955.349645568998	1
0	22411	20955.474346446141	0
0	22475	21023.9973907447	1
0	22476	21025.289646568886	0
0	22485	21029.163418861844	1
0	22486	21029.651061253508	0
0	22510	21050.646265309283	1
0	22511	21050.760057818372	0
0	22520	21052.94927895281	1
0	22521	21054.335350265725	0
0	22530	21056.758854700057	1
0	22531	21057.014158250576	0
0	22537	21058.255132488342	1
0	22538	21058.631135074047	0
0	22542	21059.085254418086	1
0	22544	21059.798744003227	2
0	22545	21060.574777529014	1
0	22548	21062.401183632945	0
0	22552	21063.968085376439	1
0	22553	21063.99269660115	0
0	22610	21167.874260490948	1
0	22611	21168.436203157609	0
0	22665	21246.452897592555	1
0	22666	21247.522749568071	0
0	22675	21249.933235738191	1
0	22676	21251.077150888797	0
0	22680	21252.016561166188	1
0	22682	21252.797123467039	2
0	22683	21252.903190036547	1
0	22686	21254.690078004692	0
0	22710	21276.407307269336	1
0	22711	21277.493479969508	0
0	22715	21278.045044433856	1
0	22716	21279.245408671132	0
0	22722	21280.705705847773	1
0	22723	21280.935732757828	0
0	22727	21281.241141168494	1
0	22728	21282.259228870055	0
0	22745	21288.312933222956	1
0	22746	21288.71708248717	0
0	22755	21292.112395391782	1
0	22757	21292.723008704548	2
0	22758	21293.065485882699	1
0	22761	21294.664378912128	0
0	22765	21296.247482755655	1
0	22766	21296.387601276427	0
0	22817	21362.157734714557	1
0	22818	21362.373506031432	0
0	22822	21362.52286612891	1
0	22823	21363.851332663619	0
0	22827	21364.081482202299	1
0	22830	21365.564300442175	0
0	22885	21439.027942314102	1
0	22886	21439.372658390359	0
0	22900	21452.074298588187	1
0	22901	21452.149019107329	0
0	22910	21455.610017685921	1
0	22911	21456.845973040896	0
0	22915	21457.538534396295	1
0	22916	21458.458812725159	0
0	22920	21458.616275932394	1
0	22921	21459.732281305442	0
0	22990	21546.886087699477	1
0	22991	21547.001815184109	0
0	22995	21548.313212121612	1
0	22996	21548.598165964983	0
0	23010	21562.597435313729	1
0	23012	21563.71677619151	2
0	23013	21564.256088076072	1
0	23016	21565.58437258816	0
0	23020	21566.063013863628	1
0	23021	21567.250095428253	0
0	23075	21660.868559246499	1
0	23076	21661.768906743785	0
0	23130	21740.539808970552	1
0	23131	21740.576193159042	0
0	23140	21756.239449208883	1
0	23141	21757.328862058206	0
0	23155	21787.608597420986	1
0	23156	21788.671839165168	0
0	23195	21835.993715038891	1
0	23197	21836.094651607991	2
0	23198	21836.593070916277	1
0	23201	21838.209686700818	0
0	23205	21838.266519673408	1
0	23206	21839.86223357432	0
0	23210	21839.902200245465	1
0	23212	21840.094734500389	2
0	23215	21841.627778867823	1
0	23219	21842.1431621026	2
0	23220	21843.439298440334	1
0	23223	21844.688539634463	0
0	23227	21845.022132622393	1
0	23228	21846.088947244924	0
0	23232	21846.108460875063	1
0	23234	21847.546595276337	2
0	23235	21847.573653500904	1
0	23238	21849.126154451822	0
0	23260	21867.4484965315	1
0	23261	21868.659454504944	0
0	23280	21892.765909127375	1
0	23281	21893.20642281797	0
0	23300	21900.752147129565	1
0	23301	21901.413048906531	0
0	23340	21952.320264961019	1
0	23341	21953.452158719217	0
0	23365	21967.318153342451	1
0	23366	21968.192778519466	0
0	23370	21969.164531034945	1
0	23371	21969.397047272995	0
0	23395	21997.803900586769	1
0	23396	21997.889251992289	0
0	23415	22009.583219631023	1
0	23418	22010.817368993882	0
0	23430	22017.215799534555	1
0	23431	22018.525452199935	0
0	23435	22018.680916666569	1
0	23436	22020.090845434911	0
0	23445	22024.393772242443	1
0	23446	22025.239223849082	0
0	23450	22025.685688929078	1
0	23451	22026.452089590633	0
0	23465	22050.793675836969	1
0	23466	22052.300086928198	0
0	23470	22053.013122115107	1
0	23471	22053.799221104236	0
0	23515	22116.329821970075	1
0	23517	22116.330720485168	2
0	23518	22117.267352190409	1
0	23521	22118.49112861881	0
0	23575	22157.795065358563	1
0	23576	22158.210790218799	0
0	23610	22180.124811911538	1
0	23611	22181.325436094503	0
0	23615	22181.42495178092	1
0	23616	22183.178804477404	0
0	23620	22183.717007462435	1
0	23623	22184.607785456914	0
0	23650	22216.499625924571	1
0	23651	22217.297627420262	0
0	23655	22218.528684312053	1
0	23656	22218.870045093358	0
0	23665	22221.507106833792	1
0	23666	22222.624451608308	0
0	23685	22245.320568252869	1
0	23687	22246.147005080939	2
0	23688	22246.558814257931	1
0	23691	22248.442128840636	0
0	23695	22249.139521441577	1
0	23696	22249.838409521792	0
0	23735	22304.280383372494	1
0	23736	22304.358869928788	0
0	23740	22304.407645967165	1
0	23741	22306.220684678588	0
0	23745	22306.43540198447	1
0	23747	22306.89412355648	2
0	23748	22307.645785790231	1
0	23751	22309.544218480509	0
0	23785	22351.067935224647	1
0	23786	22351.257409049242	0
0	23790	22351.327840168076	1
0	23791	22352.722934093557	0
0	23840	22413.88624424599	1
0	23841	22414.440543818941	0
0	23915	22514.304985670556	1
0	23916	22514.886403770528	0
0	23920	22515.836554871858	1
0	23922	22516.119095973184	2
0	23923	22516.867779063962	1
0	23926	22518.380418933525	0
0	23932	22519.229766283497	1
0	23933	22520.372491978451	0
0	23985	22575.114967683078	1
0	23986	22576.28624340281	0
0	23990	22576.716435787522	1
0	23991	22577.492834196092	0
0	23995	22578.327157785916	1
0	23996	22578.811380780527	0
0	24000	22579.133632858002	1
0	24003	22580.719409144895	0
0	24009	22581.994672071301	1
0	24010	22582.410930782595	0
0	24065	22642.420796481085	1
0	24067	22643.441192395165	2
0	24068	22643.483863419979	1
0	24072	22643.600334273863	2
0	24073	22645.265076984218	1
0	24076	22646.697582373148	0
0	24100	22687.502273143958	1
0	24101	22687.814670617503	0
0	24105	22689.274730234324	1
0	24106	22689.772626995292	0
0	24125	22714.04811957104	1
0	24126	22714.701188595948	0
0	24145	22743.833396868961	1
0	24146	22744.191222518913	0
0	24190	22782.226688346195	1
0	24191	22782.38721672498	0
0	24195	22783.238188139661	1
0	24196	22784.000657144341	0
0	24215	22791.125140527191	1
0	24217	22791.199491101804	2
0	24218	22791.417692549946	1
0	24222	22792.722499450084	2
0	24223	22793.138192441361	1
0	24226	22794.58592586075	0
0	24255	22812.73066133715	1
0	24256	22813.954414854408	0
0	24340	22900.951221921896	1
0	24341	22902.426916645887	0
0	24350	22905.706459201901	1
0	24351	22906.290615763036	0
0	24355	22906.680450235821	1
0	24356	22908.023584179474	0
0	24375	22918.610071611317	1
0	24376	22919.703619742184	0
0	24440	22995.423449776662	1
0	24442	22996.109350773214	2
0	24443	22996.631653056362	1
0	24446	22997.911247464338	0
0	24465	23016.554182408329	1
0	24466	23017.833788678889	0
0	24470	23018.125840979266	1
0	24472	23018.632591627746	2
0	24473	23019.329454977532	1
0	24476	23020.592003600207	0
0	24515	23063.766687887661	1
0	24516	23064.323112649824	0
0	24540	23075.666288957252	1
0	24541	23076.840232942599	0
0	24545	23077.734026716662	1
0	24546	23078.72830633388	0
0	24550	23079.993859957765	1
0	24551	23080.372614316057	0
0	24555	23081.133789271306	1
0	24556	23082.206734486457	0
0	24560	23082.548456925381	1
0	24561	23084.089788328458	0
0	24595	23126.030021709074	1
0	24596	23126.689317534325	0
0	24620	23149.932235547594	1
0	24621	23150.560838126246	0
0	24630	23153.314580105756	1
0	24631	23154.01455606636	0
0	24650	23165.582251002128	1
0	24651	23165.809395641393	0
0	24660	23168.944182193764	1
0	24661	23170.273539597393	0
0	24675	23182.68574506268	1
0	24678	23183.334899806645	0
0	24682	23183.856944947305	1
0	24683	23184.578981796507	0
0	24687	23185.074071910787	1
0	24688	23186.549153875787	0
0	24705	23203.067736540726	1
0	24706	23203.339865559245	0
0	24750	23244.355080413157	1
0	24751	23245.290144153923	0
0	24775	23285.754510410365	1
0	24777	23286.216204108784	2
0	24778	23287.139880550169	1
0	24781	23288.736131719761	0
0	24790	23292.71173294105	1
0	24792	23292.911901811893	2
0	24793	23293.797041999721	1
0	24796	23295.599736748994	0
0	24810	23309.350826396196	1
0	24811	23309.595603044824	0
0	24840	23330.64642172655	1
0	24841	23332.217443132164	0
0	24850	23339.674302897316	1
0	24851	23340.810921648548	0
0	24865	23348.723286728427	1
0	24866	23349.500400788435	0
0	24870	23349.907195469238	1
0	24871	23350.758630960905	0
0	25010	23511.518136820863	1
0	25011	23512.943712416811	0
0	25015	23514.086216133275	1
0	25016	23514.54877150595	0
0	25025	23526.472720879966	1
0	25026	23526.94574033955	0
0	25030	23527.793584664712	1
0	25032	23527.960268890802	2
0	25033	23528.531702561135	1
0	25036	23530.460330659727	0
0	25075	23594.971353813446	1
0	25076	23595.524497967802	0
0	25130	23661.280504411618	1
0	25131	23661.930626000023	0
0	25140	23666.004063364886	1
0	25141	23666.788472207927	0
0	25150	23680.802932604245	1
0	25151	23681.074969406794	0
0	25165	23690.840217961958	1
0	25166	23691.135232213236	0
0	25170	23691.553454971934	1
0	25171	23692.502094065122	0
0	25175	23693.005084286122	1
0	25178	23693.831396869108	0
0	25182	23694.22982331755	1
0	25183	23695.248841971442	0
0	25187	23696.288590800444	1
0	25188	23697.18990319176	0
0	25200	23701.894970333826	1
0	25201	23702.184282247435	0
0	25207	23702.856574466097	1
0	25208	23703.858667253788	0
0	25212	23704.023445895438	1
0	25213	23705.471499747682	0
0	25225	23714.412443136211	1
0	25226	23714.907664747098	0
0	25300	23840.677791242711	1
0	25302	23840.942228354783	2
0	25303	23841.422384851685	1
0	25306	23843.385210996008	0
0	25310	23844.694837420242	1
0	25311	23845.205661849006	0
0	25320	23850.675964813554	1
0	25321	23850.94028668867	0
0	25325	23851.210331408272	1
0	25326	23852.791179886624	0
0	25345	23869.217870784612	1
0	25346	23870.172008913968	0
0	25370	23904.724402869162	1
0	25371	23906.042427918827	0
0	25375	23907.004637382956	1
0	25376	23907.433670763811	0
0	25380	23908.917898378295	1
0	25381	23909.13176502171	0
0	25390	23911.378280318012	1
0	25391	23912.452293364658	0
0	25400	23915.564336132875	1
0	25401	23915.931608679637	0
0	25430	23944.57168279567	1
0	25431	23945.038579290593	0
0	25435	23946.10758136383	1
0	25438	23946.932360429736	0
0	25455	23974.131167261422	1
0	25457	23974.783634931151	2
0	25458	23976.015258496968	1
0	25461	23977.686654981567	0
0	25465	23978.455388396167	1
0	25466	23979.417626396535	0
0	25472	23981.198851528236	1
0	25473	23981.23295142871	0
0	25480	23983.162480191718	1
0	25482	23983.639910186851	2
0	25483	23984.039403529807	1
0	25486	23985.242530235059	0
0	25495	23986.464307220842	1
0	25496	23987.798446099803	0
0	25515	23997.46875845849	1
0	25518	23998.207087412412	0
0	25590	24112.006742032885	1
0	25591	24112.720726164567	0
0	25622	24147.898689209182	1
0	25625	24149.008592843843	0
0	25635	24152.66408481682	1
0	25636	24153.386654928346	0
0	25640	24153.965058890738	1
0	25641	24154.7266477816	0
0	25645	24155.405559852512	1
0	25646	24156.13030895481	0
0	25650	24157.022657378741	1
0	25651	24157.556540981327	0
0	25765	24301.162111923946	1
0	25766	24302.258167549301	0
0	25800	24346.756329492679	1
0	25801	24347.161474422594	0
0	25815	24352.821052043963	1
0	25816	24352.836155482475	0
0	25890	24415.060653100394	1
0	25891	24416.432196714721	0
0	25895	24416.447885817269	1
0	25897	24417.270480974739	2
0	25898	24417.930227953374	1
0	25902	24418.015487760816	2
0	25905	24419.70596026498	1
0	25908	24421.455920861281	0
0	25915	24423.456551218179	1
0	25916	24424.184557944342	0
0	25940	24445.962048693552	1
0	25942	24446.064118373478	2
0	25943	24447.15095212788	1
0	25949	24447.220820689802	2
0	25950	24449.012301424636	1
0	25954	24449.818888342116	2
0	25955	24450.601049833304	1
0	25958	24451.85602989935	0
0	25965	24454.389663736236	1
0	25966	24454.860737162015	0
0	25970	24455.43453365542	1
0	25971	24456.244814617863	0
0	26010	24505.329485871493	1
0	26012	24506.172711047189	2
0	26013	24506.489684187464	1
0	26017	24507.321049066639	2
0	26018	24507.696360880352	1
0	26021	24509.153119347646	0
0	26085	24633.806194541408	1
0	26086	24635.349599330987	0
0	26105	24654.631388394517	1
0	26106	24655.59877218837	0
0	26115	24658.156458055508	1
0	26116	24659.5425312239	0
0	26155	24703.162890499111	1
0	26156	24704.560722561814	0
0	26160	24705.556406972752	1
0	26161	24706.303745237067	0
0	26195	24745.873767038331	1
0	26196	24746.878971670604	0
0	26210	24759.557812411436	1
0	26211	24760.457313201601	0
0	26235	24775.804590069138	1
0	26236	24776.781588903397	0
0	26245	24802.851710931663	1
0	26246	24802.908192531197	0
0	26250	24803.011190848303	1
0	26251	24804.525664254455	0
0	26320	24928.433864624267	1
0	26321	24929.899499386103	0
0	26335	24938.213430986862	1
0	26336	24938.560656099727	0
0	26395	25004.937535567208	1
0	26396	25005.343458626054	0
0	26400	25006.722752884866	1
0	26401	25007.214891801223	0
0	26415	25012.419086464471	1
0	26416	25012.81106336512	0
0	26445	25058.258191409276	1
0	26446	25058.737068887485	0
0	26465	25103.89949198293	1
0	26466	25103.926313068913	0
0	26470	25104.993081990822	1
0	26471	25105.400247969674	0
0	26475	25106.741824141764	1
0	26476	25107.2717823146	0
0	26520	25171.118808977768	1
0	26521	25172.584745198255	0
0	26540	25196.27444836353	1
0	26541	25197.219533728295	0
0	26560	25217.162673587747	1
0	26563	25217.321341548164	0
0	26570	25219.541233793623	1
0	26571	25220.886249843847	0
0	26575	25220.943544228495	1
0	26578	25222.254844217423	0
0	26582	25222.71032891163	1
0	26583	25223.615090333718	0
0	26590	25225.489572484026	1
0	26593	25226.784609991918	0
0	26597	25227.322913616884	1
0	26598	25228.260278798873	0
0	26602	25229.390769938626	1
0	26603	25229.989552412602	0
0	26632	25240.398736251901	1
0	26634	25240.842518691232	2
0	26635	25241.129705945963	1
0	26638	25242.687483638713	0
0	26650	25253.696614503722	1
0	26651	25254.318967074484	0
0	26655	25254.644116850429	1
0	26657	25255.019203029627	2
0	26658	25255.94855639539	1
0	26662	25257.833065502982	2
0	26663	25257.926559764475	1
0	26667	25258.199991426298	2
0	26669	25258.273500499157	3
0	26670	25259.518106644556	2
0	26674	25260.016205503923	3
0	26676	25260.681322279985	4
0	26677	25261.233125394538	3
0	26681	25262.760637735517	4
0	26682	25262.959070038751	3
0	26685	25264.463452477709	2
0	26689	25266.020674541238	3
0	26690	25266.346754140921	2
0	26693	25268.331116734214	1
0	26696	25270.240875581793	0
0	26725	25295.940375610818	1
0	26726	25296.156021555403	0
0	26745	25321.319483905841	1
0	26746	25322.484417138594	0
0	26755	25329.530404975184	1
0	26757	25330.180442708225	2
0	26758	25331.150004816293	1
0	26762	25332.006292684275	2
0	26763	25332.768289852008	1
0	26766	25334.17740771757	0
0	26800	25368.389737107321	1
0	26801	25368.851757446804	0
0	26845	25408.415083527831	1
0	26846	25409.723546115972	0
0	26855	25435.253840781144	1
0	26856	25435.560540472553	0
0	26895	25508.029760756354	1
0	26896	25509.702555734375	0
0	26900	25510.621222891567	1
0	26901	25511.482539334977	0
0	26935	25547.620602604033	1
0	26936	25549.035100831302	0
0	26950	25561.419240535036	1
0	26951	25561.717526232452	0
0	26970	25591.465362781157	1
0	26971	25592.055931678625	0
0	26990	25606.853465254512	1
0	26991	25607.123107356088	0
0	27005	25622.559078986506	1
0	27006	25623.66781687954	0
0	27060	25686.109922201846	1
0	27063	25686.860313126886	0
0	27090	25712.977643442411	1
0	27091	25714.265378980361	0
0	27095	25714.937091621954	1
0	27096	25715.918369460687	0
0	27105	25718.753829338376	1
0	27107	25718.837095057961	2
0	27108	25718.929940422161	1
0	27112	25719.15741317267	2
0	27113	25720.392993311493	1
0	27116	25722.350926865546	0
0	27125	25724.222765202472	1
0	27126	25725.819877079903	0
0	27145	25742.981409111233	1
0	27146	25743.314724473365	0
0	27155	25746.032394416758	1
0	27156	25746.513399154775	0
0	27170	25750.241806984804	1
0	27171	25751.248340760998	0
0	27180	25753.323454936696	1
0	27181	25754.779867456376	0
0	27185	25754.805977343902	1
0	27186	25756.158883528493	0
0	27200	25776.270144597691	1
0	27201	25777.616475007582	0
0	27285	25897.852866055354	1
0	27286	25899.575008397256	0
0	27300	25908.820574880754	1
0	27301	25909.985751796303	0
0	27330	25993.596520391419	1
0	27331	25993.928492710056	0
0	27345	26001.412930679154	1
0	27346	26001.868250305372	0
0	27360	26017.252220577432	1
0	27361	26018.724266708497	0
0	27410	26092.632462501617	1
0	27411	26093.34651154185	0
0	27445	26125.711498109363	1
0	27446	26126.952265719785	0
0	27480	26172.628196134076	1
0	27481	26174.084940520128	0
0	27490	26180.190246112412	1
0	27491	26180.52632720669	0
0	27550	26215.649459698843	1
0	27551	26216.17565649026	0
0	27630	26292.672767913735	1
0	27631	26293.507486307651	0
0	27675	26324.217666244604	1
0	27676	26325.661109342734	0
0	27695	26338.545972305946	1
0	27696	26338.623364543112	0
0	27720	26377.575097863092	1
0	27721	26377.892628793572	0
0	27725	26378.601659621355	1
0	27726	26379.374794376609	0
0	27745	26393.891679554561	1
0	27747	26393.99864967337	2
0	27749	26394.104747943748	3
0	27750	26395.820651923299	2
0	27754	26396.316213038024	3
0	27755	26397.792232560732	2
0	27758	26399.467322262556	1
0	27762	26399.745211718175	2
0	27763	26401.087125937261	1
0	27767	26401.553674263625	2
0	27768	26402.807684240669	1
0	27772	26403.327877743183	2
0	27773	26404.10726469624	1
0	27776	26405.594527596786	0
0	27780	26407.074620970345	1
0	27781	26407.265665432989	0
0	27785	26408.539470855849	1
0	27786	26408.878279086381	0
0	27805	26428.706178205601	1
0	27806	26430.173340110104	0
0	27825	26455.627608724462	1
0	27826	26455.831492815027	0
0	27840	26460.724366427642	1
0	27841	26461.338271780941	0
0	27880	26512.167106605054	1
0	27881	26513.057452617876	0
0	27920	26558.187099077199	1
0	27921	26559.195367372218	0
0	27925	26559.246208212121	1
0	27928	26561.14958577435	0
0	27932	26561.416242008866	1
0	27933	26562.765353369149	0
0	27937	26563.832685752866	1
0	27938	26564.675153250056	0
0	27945	26566.705813684047	1
0	27947	26567.646368508173	2
0	27949	26567.651738942947	3
0	27950	26567.820315971593	2
0	27953	26569.282628496731	1
0	27956	26570.507592070284	0
0	27965	26577.17707494183	1
0	27966	26577.447487297297	0
0	27985	26625.887936690383	1
0	27986	26626.719632235322	0
0	28000	26655.810139444133	1
0	28001	26657.173086708425	0
0	28030	26698.134293207697	1
0	28031	26698.340155579564	0
0	28035	26699.671835561855	1
0	28036	26700.088541963366	0
0	28045	26715.2367886504	1
0	28046	26716.354454500783	0
0	28050	26716.92406433694	1
0	28051	26718.007788145911	0
0	28075	26727.870972517174	1
0	28076	26728.172245905637	0
0	28085	26751.100707011428	1
0	28086	26751.135304151356	0
0	28095	26759.971627981789	1
0	28096	26760.864478899222	0
0	28120	26772.081859086725	1
0	28121	26772.596220446659	0
0	28125	26772.620153854063	1
0	28126	26774.328890955543	0
0	28130	26774.763902592039	1
0	28132	26775.043495227848	2
0	28133	26775.92460862389	1
0	28136	26777.626259834414	0
0	28225	26849.764486520338	1
0	28226	26850.007450463078	0
0	28245	26878.971343568964	1
0	28246	26879.172908922032	0
0	28280	26912.132357293061	1
0	28282	26912.20986635312	2
0	28283	26912.815441551947	1
0	28287	26914.160194861033	2
0	28288	26914.387803501033	1
0	28291	26915.722327028357	0
0	28295	26916.952800542081	1
0	28296	26917.444022752859	0
0	28375	27035.15832034418	1
0	28377	27035.181639227933	2
0	28378	27037.055948979394	1
0	28381	27038.441238210896	0
0	28385	27038.891047605633	1
0	28386	27040.163253788078	0
0	28405	27046.422722483236	1
0	28407	27047.006621892543	2
0	28408	27047.400389155095	1
0	28411	27048.870309705196	0
0	28415	27049.482265369152	1
0	28416	27050.649240409864	0
0	28420	27050.702943791307	1
0	28422	27050.762582007642	2
0	28424	27051.442331346374	3
0	28425	27052.39317448484	2
0	28428	27053.860797268434	1
0	28431	27055.783791694699	0
0	28445	27071.381605930632	1
0	28446	27072.28973367282	0
0	28460	27086.610073704318	1
0	28461	27087.736671304369	0
0	28530	27216.109882032588	1
0	28531	27216.302438676916	0
0	28550	27229.342566136834	1
0	28551	27230.220145886363	0
0	28555	27230.720996000732	1
0	28556	27231.510144375981	0
0	28560	27231.700436981569	1
0	28562	27232.381340496843	2
0	28563	27233.367455075839	1
0	28567	27233.800215952003	2
0	28568	27235.048195974128	1
0	28572	27236.289950426252	2
0	28573	27236.758786947624	1
0	28576	27238.257607313217	0
0	28585	27241.807027071287	1
0	28586	27242.685687550253	0
0	28595	27257.290371732265	1
0	28596	27258.867537431281	0
0	28612	27276.47893930385	1
0	28614	27276.635213476733	2
0	28615	27277.045908508327	1
0	28618	27278.970382375334	0
0	28675	27343.852425056448	1
0	28676	27344.551626284817	0
0	28735	27427.451976013318	1
0	28736	27428.35587677187	0
0	28755	27440.03317348947	1
0	28756	27441.454781646708	0
0	28760	27441.858522662362	1
0	28761	27443.409555709602	0
0	28770	27447.166722809293	1
0	28771	27447.461562598563	0
0	28785	27455.207988823732	1
0	28787	27455.231864010555	2
0	28788	27455.277698302093	1
0	28791	27456.876213413673	0
0	28815	27472.804959991798	1
0	28816	27472.973323050471	0
0	28830	27482.027304038697	1
0	28831	27483.261720414172	0
0	28835	27483.664817503089	1
0	28837	27483.730138709602	2
0	28839	27484.074281409675	3
0	28840	27484.69350564004	2
0	28844	27484.903275810855	3
0	28846	27485.379092356363	4
0	28847	27485.953030329841	3
0	28850	27487.211758194762	2
0	28854	27487.697583444378	3
0	28855	27489.089893123778	2
0	28859	27490.331363969703	3
0	28860	27490.493154225396	2
0	28863	27492.143602604875	1
0	28867	27493.337492238072	2
0	28868	27493.609322706321	1
0	28871	27494.831866519982	0
0	28880	27499.638673551041	1
0	28881	27500.115829353375	0
0	28885	27500.252090634031	1
0	28887	27500.772460039104	2
0	28888	27502.046654624087	1
0	28892	27503.074568863557	2
0	28893	27503.700451468085	1
0	28896	27505.155782531914	0
0	28910	27519.308290270759	1
0	28911	27520.676356022385	0
0	28980	27590.00176801665	1
0	28981	27590.062537830099	0
0	28985	27590.961903553734	1
0	28986	27591.600020531341	0
0	28990	27592.112028275611	1
0	28991	27593.525925483703	0
0	29000	27608.113191896232	1
0	29001	27608.47808434819	0
0	29010	27617.384575415204	1
0	29011	27617.964869073844	0
0	29030	27643.663145612202	1
0	29032	27645.227522186408	2
0	29033	27645.327958547206	1
0	29036	27646.635865670883	0
0	29040	27647.118328184325	1
0	29041	27648.537413349443	0
0	29080	27682.536330247486	1
0	29081	27682.794019613174	0
0	29105	27703.653481449418	1
0	29106	27703.857559877353	0
0	29145	27754.524523356547	1
0	29146	27755.61215867059	0
0	29155	27759.162217444341	1
0	29156	27759.921527869758	0
0	29160	27760.868454351026	1
0	29161	27761.139558882397	0
0	29215	27833.813298440458	1
0	29216	27835.373516815874	0
0	29255	27888.661442239591	1
0	29256	27888.973598747108	0
0	29260	27890.201859350668	1
0	29261	27890.458602471989	0
0	29280	27905.436205693653	1
0	29282	27906.114014441117	2
0	29283	27906.969859629783	1
0	29286	27908.236953239243	0
0	29290	27909.539160835045	1
0	29292	27909.750069437926	2
0	29293	27909.961603124167	1
0	29296	27911.925334600832	0
0	29330	27948.622951414942	1
0	29331	27948.623294609552	0
0	29340	27951.894912760125	1
0	29341	27953.265722862342	0
0	29380	27983.406700897943	1
0	29381	27983.879149887208	0
0	29450	28078.48398755049	1
0	29452	28078.570354353535	2
0	29453	28079.475784780376	1
0	29456	28080.843577305705	0
0	29465	28090.504439742534	1
0	29466	28091.634497513233	0
0	29580	28264.866601981825	1
0	29581	28266.173830022001	0
0	29587	28266.567204136417	1
0	29588	28267.421222084844	0
0	29595	28271.039546794506	1
0	29596	28271.110503580877	0
0	29605	28274.806725442779	1
0	29606	28275.950803729304	0
0	29635	28293.516489297014	1
0	29636	28293.946581184372	0
0	29640	28294.839577487411	1
0	29641	28295.458654763989	0
0	29650	28309.861725752945	1
0	29651	28310.312466803273	0
0	29675	28337.879010870064	1
0	29676	28339.141882080041	0
0	29680	28339.536427565499	1
0	29682	28340.077297857821	2
0	29684	28340.475577621371	3
0	29685	28340.557065488786	2
0	29688	28342.070543675513	1
0	29691	28343.80794532878	0
0	29705	28349.106927579422	1
0	29706	28350.268689953173	0
0	29710	28351.272805449286	1
0	29712	28351.869476878014	2
0	29713	28351.995860160152	1
0	29717	28352.201285265072	2
0	29719	28353.257666243239	3
0	29720	28353.861340330923	2
0	29724	28354.181525401281	3
0	29725	28355.842283913502	2
0	29729	28356.108293772292	3
0	29732	28357.620913185188	2
0	29735	28358.841444314653	1
0	29740	28360.465287488894	0
0	29805	28432.394587997443	1
0	29806	28432.461618174141	0
0	29865	28504.145496287485	1
0	29866	28504.316664585743	0
0	29935	28611.665069908905	1
0	29936	28611.961502125389	0
0	29985	28662.100456032834	1
0	29986	28662.582595371354	0
0	29995	28694.040977913166	1
0	29996	28694.973803151952	0
0	30010	28720.44588266114	1
0	30011	28720.597070954121	0
0	30015	28721.146211619893	1
0	30016	28722.524660129412	0
0	30045	28745.001267735815	1
0	30046	28746.121010760007	0
0	30085	28796.524945545738	1
0	30086	28797.596653942607	0
0	30125	28857.498323181521	1
0	30127	28857.96836333154	2
0	30128	28858.060858278616	1
0	30132	28858.855037903598	2
0	30133	28859.366488389379	1
0	30136	28861.215377869538	0
0	30185	28901.044400188174	1
0	30186	28901.929759850019	0
0	30230	28930.914686210528	1
0	30231	28931.167772801097	0
0	30235	28931.759115121677	1
0	30236	28932.877314144436	0
0	30255	28952.515396836934	1
0	30256	28952.743432614784	0
0	30260	28952.762760230779	1
0	30261	28954.024754610489	0
0	30270	28967.944056658106	1
0	30271	28969.547840684484	0
0	30285	28982.338460825857	1
0	30286	28982.875021182871	0
0	30360	29106.419020027994	1
0	30361	29107.452888639689	0
0	30370	29117.74046549907	1
0	30371	29119.494111968352	0
0	30375	29120.035252596027	1
0	30377	29121.21120249396	2
0	30378	29121.317703400327	1
0	30382	29122.629702814951	2
0	30383	29123.105016790291	1
0	30386	29124.412034758513	0
0	30390	29125.208286966114	1
0	30391	29126.110718049442	0
0	30400	29129.102704768655	1
0	30401	29129.411878503848	0
0	30415	29148.001004052386	1
0	30416	29149.326100653158	0
0	30430	29153.036010498676	1
0	30432	29153.112882918439	2
0	30434	29153.407792083446	3
0	30435	29153.950073468335	2
0	30438	29155.778446494997	1
0	30441	29157.083973986865	0
0	30450	29161.840146270183	1
0	30451	29162.546477680557	0
0	30460	29166.893062733663	1
0	30461	29166.997023450252	0
0	30465	29167.087892265894	1
0	30466	29168.959004247044	0
0	30490	29185.173038447267	1
0	30491	29185.725086691948	0
0	30555	29230.192660629144	1
0	30556	29231.026747093178	0
0	30560	29231.145639466223	1
0	30563	29232.885923523843	0
0	30570	29235.08320305517	1
0	30571	29236.548635174535	0
0	30605	29286.530744596893	1
0	30606	29286.82365844389	0
0	30625	29302.154956469735	1
0	30626	29302.453788956729	0
0	30630	29302.966401098297	1
0	30631	29304.093406714414	0
0	30645	29310.559709588702	1
0	30646	29310.734862138759	0
0	30695	29353.310740628705	1
0	30696	29354.20892346705	0
0	30720	29364.702079296904	1
0	30721	29366.094078405175	0
0	30760	29404.004779964955	1
0	30761	29405.097537850431	0
0	30830	29471.001951501109	1
0	30831	29472.18727591099	0
0	30875	29549.071948577143	1
0	30876	29549.310612622343	0
0	30895	29556.572620099701	1
0	30896	29557.689991136846	0
0	30910	29565.570495935806	1
0	30911	29565.659707232676	0
0	30975	29639.103747193604	1
0	30976	29639.927352187744	0
0	30980	29640.686179525604	1
0	30981	29641.760384421198	0
0	31005	29659.610414084621	1
0	31006	29659.704652008593	0
0	31010	29660.605901687216	1
0	31011	29661.453389712229	0
0	31020	29663.079872247191	1
0	31022	29663.1244208453	2
0	31023	29664.317629544801	1
0	31026	29665.637683008416	0
0	31030	29666.809467691055	1
0	31031	29667.095373849748	0
0	31045	29673.290858581183	1
0	31047	29673.391236134418	2
0	31048	29673.721300001984	1
0	31054	29674.650868271568	2
0	31056	29675.538131673678	3
0	31057	29675.564524637891	2
0	31060	29677.088205479441	1
0	31063	29678.82261953762	0
0	31080	29694.034817569548	1
0	31081	29695.024590861352	0
0	31130	29722.200943214772	1
0	31131	29723.080885300411	0
0	31135	29723.677966540974	1
0	31136	29724.531761281004	0
0	31145	29736.624732042476	1
0	31146	29737.839784884465	0
0	31165	29752.522917768604	1
0	31166	29752.88457488087	0
0	31175	29755.688321296052	1
0	31176	29757.031654168136	0
0	31240	29817.207617157826	1
0	31241	29817.940087357518	0
0	31270	29835.222341295396	1
0	31271	29836.543711340647	0
0	31305	29878.305482218221	1
0	31306	29879.625314158873	0
0	31360	29971.636920883223	1
0	31362	29971.978240168075	2
0	31363	29972.575385527417	1
0	31366	29973.862601712637	0
1	10837	10004.11981563453	1.801200519502
1	10840	10005.609109664861	2.219865254327
1	10852	10021.827452577174	1.47508474905
1	10865	10026.620786616848	5.433129248789
1	10875	10039.672215542514	1.303885803744
1	10907	10053.704507757458	13.581739177167
1	10910	10055.41272455297	3.04389465302
1	10925	10077.999098563093	1.304067733511
1	10930	10081.263887944735	1.812776849233
1	10935	10083.347608037345	1.754041838087
1	10945	10098.786538630454	1.282394784316
1	10952	10100.267318491332	1.220677562431
1	10960	10115.147284352164	1.691103160009
1	10970	10146.681245872942	1.212693462893
1	10975	10152.093470924287	1.728887990862
1	10980	10157.026744049556	1.408305286802
1	10989	10162.384458218172	1.777765615843
1	10992	10164.026021356538	2.728940409822
1	11005	10175.410930162195	3.016316179679
1	11010	10177.730142449027	1.201405857503
1	11015	10186.644996510916	1.551674087532
1	11024	10189.065971937683	1.641123032942
1	11027	10190.715784127918	2.774637403187
1	11050	10201.024829530483	8.199372916109
1	11057	10209.167453929587	1.653641381301
1	11070	10217.834763524288	1.299181247875
1	11085	10256.792165531689	3.193464331553
1	11090	10263.85458429057	1.438174106367
1	11105	10278.037153179552	1.399244763143
1	11115	10285.437262449471	1.88501247149
1	11120	10311.467409830034	1.870292284153
1	11125	10315.190804090996	1.924391953275
1	11130	10319.315911725178	1.819877427258
1	11135	10334.073205247866	1.216874684021
1	11140	10335.932418509889	1.758425761014
1	11157	10353.999588300881	2.018645087781
1	11172	10361.137626095424	1.749763527513
1	11187	10367.476619634788	8.025704660463
1	11190	10368.678720142144	2.229333458743
1	11197	10372.779084188066	1.271227804385
1	11200	10374.220790079742	1.719177340075
1	11205	10388.48888378167	1.980768433586
1	11217	10392.969570580969	2.119618881262
1	11237	10400.428172223094	10.923744105273
1	11240	10402.187967283662	6.109152777909
1	11245	10404.987602391006	1.28944683373
1	11250	10408.208343532956	1.914037975855
1	11269	10440.987442425807	6.164646245938
1	11272	10442.90579249764	2.094165623118
1	11280	10447.374944471249	1.271829919331
1	11285	10461.79588843227	1.930365371518
1	11297	10467.978704061407	1.2312792076
1	11300	10469.832544985648	4.947875136323
1	11305	10474.388005020907	1.620768024959
1	11320	10497.224353988056	4.193953040232
1	11325	10506.294577079107	1.437959673256
1	11330	10508.069732579052	1.594669529423
1	11335	10520.73234397764	1.69942277167
1	11352	10544.572545064256	3.181980559362
1	11357	10546.423867432975	5.653376756609
1	11362	10548.353328659215	3.041048843773
1	11377	10553.465784300982	5.904208066624
1	11380	10555.017175502635	3.113704643033
1	11389	10565.558339723909	1.706217066199
1	11397	10568.122371091286	1.786606873623
1	11405	10571.941169045085	6.6803200746
1	11410	10575.409624638044	1.93563698139
1	11415	10589.413521729524	1.98518779669
1	11427	10603.446873904103	3.848281463177
1	11435	10611.711684736418	1.415517400019
1	11449	10627.181351199616	3.172519665245
1	11452	10628.422788690459	4.224287377504
1	11465	10632.785858430768	2.360840248761
1	11470	10634.587633071281	6.065647321372
1	11480	10644.801585657929	5.274489603493
1	11485	10652.97449660674	1.621943093278
1	11490	10659.508490594018	1.369241964445
1	11495	10665.803912960678	1.875949573517
1	11500	10670.362415346443	1.520211271197
1	11505	10675.974999124049	1.476565198041
1	11510	10679.549354227715	1.842730553448
1	11520	10688.162840534696	3.870193187895
1	11527	10702.554171289581	1.991758546047
1	11550	10719.375121160718	5.144412057438
1	11555	10721.325863589603	1.454940766469
1	11565	10742.442632424907	1.673632766679
1	11572	10746.665899624546	1.7967070885
1	11577	10748.029192607907	1.913348768123
1	11585	10750.978905299442	3.58546097672
1	11602	10776.098618165058	2.127657100983
1	11605	10778.076976818991	5.380155161582
1	11612	10783.398025600881	1.993021159992
1	11615	10785.029421807163	3.281794220001
1	11632	10801.429086105998	1.302597780153
1	11635	10803.112786818023	5.14925009503
1	11640	10824.483513255694	1.536533675715
1	11645	10832.711459741323	1.254631955549
1	11650	10849.315055153617	1.399770426378
1	11655	10851.306643228715	1.291951199807
1	11670	10857.250106448183	4.871301020551
1	11692	10893.940315282898	2.318961805351
1	11695	10895.7631047273	2.552747924262
1	11717	10914.000380134539	1.704155996814
1	11722	10915.578295580068	7.141696113775
1	11725	10916.792528912754	1.28955575639
1	11730	10920.88464311764	1.8540472202
1	11742	10938.412546247839	2.035460225614
1	11747	10939.826391358337	4.470071175135
1	11767	10951.993900357946	6.645948800653
1	11785	10972.795059389575	1.441821868159
1	11790	10980.871758815569	1.598908131011
1	11795	10983.039007323504	1.309202764183
1	11814	10996.757793282406	2.540774694628
1	11821	10998.636711331704	8.429774717628
1	11829	11002.465586330616	5.391276581726
1	11837	11005.867189354137	2.232798704973
1	11847	11008.496843486153	14.98631491661
1	11850	11010.437643844136	9.682789588533
1	11857	11017.555387192356	1.536060743034
1	11860	11018.835278443011	2.59147230451
1	11865	11025.300507573461	1.371463018656
1	11870	11031.892965498834	1.424584018998
1	11880	11038.530397054016	6.364530617257
1	11887	11042.759424851358	1.897161941789
1	11892	11044.752761470236	3.478211913406
1	11904	11051.017842584562	1.896357265487
1	11909	11052.852355375786	3.69027665156
1	11925	11059.55744117727	3.204556672878
1	11930	11065.615811236271	1.615177264251
1	11935	11067.080887322897	1.307496740296
1	11940	11078.612797680699	1.494012536854
1	11952	11097.076329112493	1.733422701198
1	11959	11098.848622325503	3.350378523917
1	11962	11100.754212657616	7.153254888207
1	11965	11102.048669323206	4.529937513239
1	11970	11109.463401126874	1.80737540368
1	12002	11127.076295140476	2.781447801928
1	12005	11128.724444048942	2.951818214872
1	12010	11135.571332501324	1.683535874076
1	12015	11137.822825186425	1.709904235415
1	12030	11149.637211690613	2.964478752821
1	12035	11151.404147424728	7.093574147561
1	12055	11162.582937179081	3.615534566723
1	12080	11178.34514792504	1.827863251977
1	12085	11188.372247679042	1.853772034869
1	12090	11189.974108126665	1.446319187433
1	12095	11194.897038964589	1.730876644515
1	12110	11217.254521902768	1.787667478621
1	12122	11229.876958421682	2.833771267947
1	12125	11231.45448588754	4.859782221541
1	12130	11238.257458230457	1.404888010584
1	12135	11242.518909304875	1.8856918782
1	12140	11244.430520645819	1.768915981427
1	12150	11253.315260700527	2.817689679293
1	12157	11258.947394561421	1.629110987484
1	12165	11268.48418689101	1.765535681881
1	12170	11270.1415143374	1.39538351465
1	12182	11290.129314105061	1.61681885235
1	12190	11294.633487167839	8.446780006343
1	12195	11297.313721276259	1.449868480302
1	12202	11299.536501723737	1.912976368517
1	12215	11304.365534365201	1.962792879371
1	12229	11309.658054410609	2.188300045128
1	12232	11310.974050140324	10.006546457687
1	12235	11312.493209938276	2.847664531516
1	12240	11321.42826888368	1.786260926723
1	12245	11333.584279877625	1.966794230975
1	12252	11339.41068902545	1.844497785158
1	12257	11341.010736275728	2.652071193046
1	12270	11350.249096411303	10.12587277032
1	12275	11358.099744034379	1.891106868908
1	12280	11360.435041164699	1.981420437992
1	12285	11362.784747135885	1.991885836609
1	12295	11372.88478369581	2.944878357518
1	12310	11387.774922715618	1.483269675262
1	12335	11401.079260160197	11.154332995721
1	12340	11404.199064677936	1.787252755463
1	12347	11407.820742557615	1.814647464268
1	12352	11409.141561745338	1.410770606504
1	12360	11412.51634484867	4.104299321266
1	12370	11436.456266510722	1.538199512474
1	12377	11439.79180860461	1.83208490815
1	12382	11441.694778906715	3.473315930989
1	12385	11443.080706411947	1.836607497441
1	12395	11452.94222650077	3.988302522593
1	12405	11457.771567437098	4.082515065829
1	12415	11462.294635172868	1.633679632097
1	12425	11470.646461659046	2.762817886031
1	12435	11475.688922428422	8.183002996406
1	12440	11480.302151259298	1.657996401004
1	12445	11498.169995795916	1.875766967237
1	12457	11524.907749403822	3.627848339048
1	12462	11526.168572719018	2.051207635367
1	12465	11527.574375369581	2.507394229094
1	12470	11565.140837704563	1.430027317815
1	12487	11572.29472454532	2.290233125051
1	12492	11573.839218819206	3.769120389026
1	12502	11576.504381113564	1.778376094853
1	12505	11578.481422692043	11.053825765064
1	12520	11609.567767702944	5.319073184394
1	12527	11611.699893585192	6.044362748448
1	12535	11614.740722029628	2.707654210184
1	12547	11627.387735339243	4.387642516393
1	12550	11628.705657154311	2.122558997808
1	12555	11633.454449519475	1.332758487761
1	12562	11638.18491545823	1.894438318908
1	12565	11640.177638135111	3.673728460757
1	12570	11646.328939418076	1.444830877706
1	12577	11648.911940763543	1.735324244015
1	12580	11650.14314981925	1.90476003353
1	12585	11659.266379104894	1.516599603929
1	12594	11661.485275924626	1.465384213813
1	12597	11662.926911490086	1.715178833993
1	12605	11669.089099706659	1.733562693372
1	12632	11678.742822001314	9.025089147747
1	12635	11680.242701244353	2.859131582532
1	12640	11691.45119222588	1.667379889078
1	12654	11698.909712187002	1.84738695807
1	12657	11700.31681077181	4.652381461672
1	12660	11701.978211992407	3.122252132673
1	12665	11719.114966589735	1.628020217456
1	12670	11722.039675022888	1.955053037591
1	12675	11735.263789904661	1.93833762072
1	12680	11737.050074804673	1.493746527098
1	12685	11746.170651089244	1.350163601711
1	12692	11750.242539347886	1.314691056125
1	12705	11758.757235115154	9.477524536766
1	12715	11762.153978448718	1.692427389045
1	12725	11775.116909912435	4.019753565368
1	12730	11783.639987445665	1.397359261662
1	12735	11787.647338969771	1.252649452537
1	12745	11791.167515849111	3.244652961386
1	12750	11802.268962723925	1.913372653536
1	12755	11804.481284392934	1.568453117274
1	12772	11816.55441157927	1.234792469256
1	12787	11821.464267035498	5.696266169228
1	12792	11823.330789678282	6.201546315972
1	12795	11825.235351026355	2.10337858152
1	12800	11828.758311435533	1.920201320201
1	12805	11834.204619383436	1.273447358422
1	12810	11841.98933002126	1.948695449531
1	12815	11843.442837620422	1.315723867156
1	12820	11845.487319412868	1.451010028087
1	12835	11860.60162933008	5.71368534809
1	12840	11863.64624582106	1.588791677356
1	12850	11868.577795031192	1.240850595199
1	12857	11878.861342463559	1.563533877395
1	12860	11880.318857307276	1.472259545762
1	12875	11896.179354302823	1.674766036682
[...]
6	29665	28318.049431158133	1.215079569817
6	29747	28364.216218052814	1.751069906168
6	29750	28366.008381146575	1.792163093761
6	29780	28413.676203506854	1.817124334909
6	29795	28426.119469386437	1.246857457422
6	29820	28443.677214761106	1.21590744704
6	29840	28475.157976410925	1.890724163689
6	29920	28602.079468433131	1.783621738665
6	29965	28636.348191344672	4.846058596324
6	29980	28652.916401134138	1.385988548771
6	30047	28746.121010760007	1.906796422228
6	30065	28762.658107616746	1.371244449541
6	30095	28801.232792795852	1.848061889783
6	30155	28875.941316826528	1.320896731503
6	30272	28969.547840684484	1.99568116162
6	30287	28982.875021182871	1.657304999977
6	30302	29033.714911505352	1.970893526822
6	30305	29035.351149835768	1.636238330416
6	30330	29058.704236458065	4.500173210701
6	30410	29138.779236667106	1.445417102054
6	30425	29152.245290155178	1.433933600038
6	30520	29197.250588783188	1.722261735797
6	30572	29236.548635174535	1.96192843616
6	30590	29253.262873755955	1.728296274133
6	30595	29259.973377147368	1.505061092786
6	30615	29291.764654130946	1.352678651549
6	30655	29317.285242888629	1.280934803374
6	30670	29337.734043793876	1.229821646959
6	30675	29344.038000111154	1.75105272308
6	30680	29347.776612601925	1.434150486998
6	30715	29363.948590057012	11.398955097406
6	30747	29390.111854957476	4.457150432027
6	30750	29392.090411998391	1.978557040915
6	30780	29421.067456201895	1.681520673819
6	30785	29424.722328614654	1.372098608501
6	30790	29431.560554732884	1.918902194127
6	30805	29439.823693213801	1.514658702351
6	30832	29472.18727591099	1.392659107968
6	30840	29477.17696804828	1.99811376296
6	30860	29525.23158975258	7.351036012467
6	30897	29557.689991136846	6.661652429592
6	30945	29592.153219280163	4.335656815668
6	30965	29623.498400992437	1.857845143974
6	31024	29664.317629544801	1.255883097462
6	31070	29681.863057850471	1.564363644831
6	31100	29708.443953347126	1.683637046441
6	31125	29720.619187198258	1.254603423737
6	31167	29752.88457488087	1.721623719484
6	31220	29781.630939455739	1.665649352409
6	31230	29805.016621906737	1.599950140528
6	31300	29856.589364501374	6.115678167776
7	10855	10022.45099736426	1
7	10856	10023.71356465564	0
7	10890	10049.097878757921	1
7	10896	10051.166827117014	0
7	10915	10073.143274082178	1
7	10916	10073.461569392021	0
7	10950	10099.714327702018	1
7	10951	10100.267318491332	0
7	10987	10161.975488369321	1
7	10991	10164.026021356538	0
7	11022	10188.757011404207	1
7	11026	10190.715784127918	0
7	11040	10194.847875243375	1
7	11041	10195.754443312434	0
7	11055	10207.814204798931	1
7	11056	10209.167453929587	0
7	11155	10353.934849375965	1
7	11156	10353.999588300881	0
7	11265	10440.010592913041	1
7	11271	10442.90579249764	0
7	11385	10565.11512221765	1
7	11396	10568.122371091286	0
7	11425	10602.299512716951	1
7	11426	10603.446873904103	0
7	11444	10624.527677320046	1
7	11451	10628.422788690459	0
7	11525	10702.332136376493	1
7	11526	10702.554171289581	0
7	11535	10705.825161933115	1
7	11536	10706.721962851571	0
7	11745	10939.075923234924	1
7	11746	10939.826391358337	0
7	11765	10950.822154307062	1
7	11766	10951.993900357946	0
7	11819	10997.689534187976	1
7	11836	11005.867189354137	0
7	11890	11043.020141040178	1
7	11891	11044.752761470236	0
7	11902	11050.128208278401	1
7	11907	11051.507389078578	2
7	11908	11052.852355375786	1
7	11911	11054.06897411709	0
7	12040	11157.277206344422	1
7	12041	11157.732537359393	0
7	12155	11257.321278317442	1
7	12156	11258.947394561421	0
7	12200	11298.837717413493	1
7	12201	11299.536501723737	0
7	12525	11610.980927765385	1
7	12526	11611.699893585192	0
7	12590	11660.853725814642	1
7	12596	11662.926911490086	0
7	12615	11672.599868216194	1
7	12621	11675.525842188601	0
7	12865	11888.018616506386	1
7	12866	11889.173565379326	0
7	12925	11942.025869671076	1
7	12926	11943.302470909383	0
7	13350	12353.459828199791	1
7	13351	12353.472573365765	0
7	13425	12420.793376700082	1
7	13426	12421.074113800563	0
7	13470	12473.861152486769	1
7	13471	12475.253238272205	0
7	13680	12667.498431040923	1
7	13681	12667.720591390996	0
7	13720	12689.9614678716	1
7	13721	12691.511603495033	0
7	13730	12695.945003528762	1
7	13731	12696.115350853567	0
7	13955	12949.952944615125	1
7	13956	12951.240905426684	0
7	13967	12954.757679775448	1
7	13972	12955.395366068085	2
7	13973	12956.365361596885	1
7	13976	12957.610839313696	0
7	14075	13013.497879443773	1
7	14076	13014.731640204413	0
7	14115	13049.282212401559	1
7	14116	13050.645474663148	0
7	14135	13056.192061074281	1
7	14136	13056.663223402905	0
7	14187	13124.491537613597	1
7	14191	13126.313760426749	0
7	14275	13232.915140119872	1
7	14276	13234.222697597578	0
7	14350	13304.942366994436	1
7	14351	13305.104997042375	0
7	14472	13366.628915589727	1
7	14476	13369.340471436458	0
7	14530	13409.613352141044	1
7	14531	13410.77820928462	0
7	14540	13420.458206277258	1
7	14541	13421.493389342585	0
7	14580	13473.904095934018	1
7	14581	13475.501603298989	0
7	14700	13626.537382007198	1
7	14701	13627.818902012265	0
7	14892	13792.97436082265	1
7	14901	13796.573447559448	0
7	14995	13877.590398691604	1
7	14996	13878.186508548108	0
7	15000	13878.523770758201	1
7	15001	13879.816035115567	0
7	15005	13881.102762434515	1
7	15006	13881.553595416282	0
7	15082	13919.882953261977	1
7	15086	13922.316782562117	0
7	15095	13924.206990193406	1
7	15096	13925.843223709144	0
7	15180	14003.355235593693	1
7	15181	14004.469991820291	0
7	15217	14033.067093638373	1
7	15221	14034.94804595187	0
7	15362	14145.593079944446	1
7	15371	14149.56756028169	0
7	15480	14371.531696083395	1
7	15481	14371.818445606049	0
7	15490	14379.346874961763	1
7	15491	14380.528601158235	0
7	15685	14556.808433151624	1
7	15692	14557.842306472041	2
7	15693	14559.568752023855	1
7	15696	14561.335462159009	0
7	15757	14602.633553894474	1
7	15761	14604.835274736584	0
7	15775	14609.880900690798	1
7	15776	14611.290138427798	0
7	15795	14625.670477977823	1
7	15801	14628.907579245971	0
7	15815	14637.740937276778	1
7	15816	14638.745415147537	0
7	15827	14641.832872003101	1
7	15837	14645.163706536106	2
7	15843	14646.90037559426	1
7	15851	14649.454505905943	0
7	15862	14652.087892456452	1
7	15866	14654.134561545836	0
7	15890	14703.659212861209	1
7	15891	14704.58072947271	0
7	16020	14796.515321660562	1
7	16021	14797.395968011578	0
7	16195	14937.695808070546	1
7	16196	14937.954428862951	0
7	16217	14957.294920892273	1
7	16221	14959.172918600657	0
7	16230	14975.2214604669	1
7	16231	14975.750850047584	0
7	16235	14975.911053606373	1
7	16236	14977.624233743402	0
7	16250	14984.589678820363	1
7	16251	14985.53442428341	0
7	16262	14987.552295534006	1
7	16271	14992.071121061274	0
7	16325	15032.453317164168	1
7	16332	15033.580019556944	2
7	16338	15036.881886547825	1
7	16341	15038.370840512796	0
7	16355	15062.656354750875	1
7	16356	15063.843641559023	0
7	16400	15127.453236527519	1
7	16401	15128.576640671031	0
7	16960	15643.14057511292	1
7	16961	15643.762756989869	0
7	16977	15647.318051990085	1
7	16981	15650.534157190257	0
7	17010	15670.471895542316	1
7	17011	15670.542937598965	0
7	17055	15754.83695841755	1
7	17056	15755.703154659683	0
7	17127	15808.382328940269	1
7	17131	15810.266812394394	0
7	17145	15822.080805489804	1
7	17147	15822.379903105256	2
7	17148	15823.021653654098	1
7	17151	15824.370803171068	0
7	17190	15841.542925428866	1
7	17191	15842.083957342965	0
7	17250	15879.584845693791	1
7	17251	15879.654186939869	0
7	17315	15939.457923382235	1
7	17316	15939.664706025442	0
7	17530	16131.921390875994	1
7	17531	16132.966229020803	0
7	17550	16140.440808502705	1
7	17551	16140.703602727761	0
7	17760	16339.382732807555	1
7	17761	16340.162965993366	0
7	17770	16344.187745980664	1
7	17771	16345.53030919682	0
7	17830	16396.805500811204	1
7	17831	16397.609704076243	0
7	17835	16397.963915392254	1
7	17836	16399.204003862967	0
7	17850	16432.8571164476	1
7	17851	16432.875004378191	0
7	17855	16433.149080197601	1
7	17856	16434.11748194941	0
7	17905	16463.234617871381	1
7	17906	16464.829979945164	0
7	17935	16475.293821238276	1
7	17936	16476.275857330349	0
7	17950	16484.619537506729	1
7	17951	16484.760350328537	0
7	18000	16531.07459653651	1
7	18001	16532.04586599216	0
7	18015	16542.901487474937	1
7	18036	16550.495554870373	0
7	18210	16753.036465770245	1
7	18217	16753.777821891764	2
7	18223	16757.336914987272	1
7	18234	16759.20703542297	2
7	18248	16765.409953103369	1
7	18251	16767.130037650807	0
7	18390	16931.466564349355	1
7	18391	16932.370309632041	0
7	18440	16952.844268632438	1
7	18441	16953.855412485031	0
7	18490	17070.746674993788	1
7	18491	17071.70555866418	0
7	18495	17071.83508639232	1
7	18501	17074.468912521578	0
7	18512	17076.535497413678	1
7	18516	17079.079832800119	0
7	18545	17107.218695017939	1
7	18546	17108.355468761065	0
7	18725	17364.939577492835	1
7	18726	17366.799309287109	0
7	18780	17392.62667822686	1
7	18781	17393.704480958815	0
7	18957	17547.401870040286	1
7	18961	17549.10734113478	0
7	19040	17648.051736602256	1
7	19041	17648.249756385666	0
7	19060	17664.108429596065	1
7	19061	17664.932159849065	0
7	19065	17665.616807858436	1
7	19066	17666.827323826397	0
7	19070	17667.656905989294	1
7	19071	17668.388389232563	0
7	19360	17949.310426197158	1
7	19361	17949.341787618145	0
7	19375	17957.326247184139	1
7	19381	17960.000503908273	0
7	19465	18025.158149371729	1
7	19466	18025.32305847673	0
7	19520	18081.568754665344	1
7	19521	18081.866675380824	0
7	19672	18266.134714362473	1
7	19676	18269.622778262511	0
7	19690	18274.140555722264	1
7	19697	18275.065147014142	2
7	19703	18278.179657902849	1
7	19706	18279.850086703059	0
7	19760	18377.781347170364	1
7	19761	18378.794534659286	0
7	19840	18469.558416769106	1
7	19841	18469.785119280238	0
7	19990	18722.180431278759	1
7	19991	18722.42801903173	0
7	20005	18731.490736105146	1
7	20006	18731.740557593261	0
7	20060	18809.271572628957	1
7	20061	18809.403246381956	0
7	20070	18812.083477052628	1
7	20079	18815.189134973005	2
7	20083	18817.103313973938	1
7	20086	18819.028163929303	0
7	20180	18944.422335172492	1
7	20186	18946.752297039205	0
7	20195	18948.603472509931	1
7	20196	18949.504292154932	0
7	20275	19015.988273400824	1
7	20291	19022.374874465191	0
7	20402	19141.04367375365	1
7	20409	19142.084338956252	2
7	20413	19145.63879310619	1
7	20441	19156.365691945514	0
7	20447	19157.842006318596	1
7	20466	19164.407851150817	0
7	20555	19268.800355756712	1
7	20561	19271.560932200712	0
7	20615	19341.512570378068	1
7	20616	19341.664374205419	0
7	20645	19358.703915162298	1
7	20646	19359.780540716602	0
7	20675	19388.963143955735	1
7	20681	19391.926852734533	0
7	20690	19393.742977379579	1
7	20691	19395.230210761313	0
7	20740	19425.025329518661	1
7	20742	19425.841466018931	2
7	20743	19426.387528193504	1
7	20761	19432.91601866907	0
7	20770	19435.157025152313	1
7	20771	19436.022027955712	0
7	20790	19460.282218588463	1
7	20791	19461.103451522894	0
7	20905	19567.154394163651	1
7	20906	19568.638551837705	0
7	21135	19811.384471524918	1
7	21159	19817.652605376932	2
7	21163	19820.896108719457	1
7	21177	19825.704226213498	2
7	21178	19826.301628892806	1
7	21181	19828.124438724977	0
7	21265	19930.555488768984	1
7	21266	19931.261383977451	0
7	21340	19968.331780229269	1
7	21341	19969.233526442615	0
7	21695	20304.22560390133	1
7	21701	20306.73665765907	0
7	22004	20549.240256705694	1
7	22046	20565.186847794674	0
7	22325	20890.132078038874	1
7	22326	20890.721738076624	0
7	22367	20910.745207567868	1
7	22376	20914.956011196123	0
7	22385	20917.575520232833	1
7	22386	20918.167819826257	0
7	22415	20956.276695609832	1
7	22416	20957.341673118516	0
7	22505	21048.362889286698	1
7	22506	21048.994990086038	0
7	22525	21055.44510381902	1
7	22526	21055.63869824875	0
7	22535	21057.996561701808	1
7	22556	21065.443386137111	0
7	22705	21275.682565612984	1
7	22706	21276.284492350525	0
7	22720	21280.490418148327	1
7	22731	21283.524254887147	0
7	22740	21286.86131240476	1
7	22741	21287.396883951437	0
7	22800	21350.207803441863	1
7	22801	21350.870315869666	0
7	22815	21361.672961649325	1
7	22829	21365.523304781988	2
7	22833	21367.329622431719	1
7	22836	21368.625504156635	0
7	23180	21821.145924064291	1
7	23181	21821.812005178228	0
7	23214	21841.521164638933	1
7	23241	21850.712695954	0
7	23285	21893.866230171331	1
7	23286	21894.808336814383	0
7	23295	21898.583923664332	1
7	23296	21899.652903992031	0
7	23417	22009.776778970966	1
7	23421	22012.14565327556	0
7	23525	22119.793295632231	1
7	23526	22120.174667811561	0
7	23622	22183.732458550244	1
7	23626	22185.845635168913	0
7	23660	22220.668232561736	1
7	23661	22220.819473129981	0
7	23770	22334.75291701066	1
7	23771	22335.986141348556	0
7	23775	22336.938062101719	1
7	23776	22337.607992784791	0
7	23830	22408.382596287389	1
7	23831	22409.421686730948	0
7	23930	22518.450946052162	1
7	23936	22521.821509012363	0
7	24002	22579.796834446681	1
7	24007	22580.802937204708	2
7	24013	22583.738871829436	1
7	24016	22585.626663125158	0
7	24200	22784.700459949176	1
7	24201	22785.304435924034	0
7	24315	22890.435376699271	1
7	24316	22891.773849112625	0
7	24370	22918.432026992294	1
7	24371	22918.448872875585	0
7	24390	22923.846239742842	1
7	24391	22925.165182991813	0
7	24450	22998.399901326223	1
7	24451	22999.131542945722	0
7	24615	23147.141837180139	1
7	24616	23148.775339156989	0
7	24625	23151.114769098222	1
7	24626	23152.496395282861	0
7	24677	23183.203719699442	1
7	24691	23188.084690512013	0
7	24825	23324.648628843662	1
7	24826	23325.041797113445	0
7	24960	23451.423729325217	1
7	24961	23451.425678386009	0
7	25177	23693.140303035672	1
7	25191	23698.9165750769	0
7	25205	23702.54365551484	1
7	25216	23706.859880769152	0
7	25275	23816.797825537274	1
7	25276	23817.819878937586	0
7	25280	23818.419614112445	1
7	25281	23819.812708472556	0
7	25385	23910.696870881683	1
7	25386	23911.003711015685	0
7	25437	23946.505343709307	1
7	25441	23948.768854146311	0
7	25470	23981.114720050332	1
7	25476	23982.739352259195	0
7	25490	23985.485580537848	1
7	25491	23986.445326488435	0
7	25500	23988.591759403161	1
7	25501	23989.499628909648	0
7	25517	23997.536371438811	1
7	25521	23999.841391846287	0
7	25580	24106.252723548037	1
7	25581	24107.058296711629	0
7	25620	24147.645416512271	1
7	25624	24148.759611065049	2
7	25628	24150.607177797911	1
7	25631	24152.079433503953	0
7	25695	24213.495293468992	1
7	25696	24214.389406874119	0
7	25855	24383.581638544172	1
7	25856	24385.300382790571	0
7	25904	24418.479958476433	1
7	25911	24422.711315088339	0
7	25947	24447.218115162916	1
7	25961	24453.590703587538	0
7	26055	24575.612750406113	1
7	26056	24576.052476566219	0
7	26175	24731.28663986501	1
7	26176	24732.113632732842	0
7	26490	25118.111051614703	1
7	26491	25118.928863635262	0
7	26562	25217.300550505066	1
7	26566	25219.004100155693	0
7	26577	25221.502335954923	1
7	26586	25225.42046039668	0
7	26592	25226.660034472921	1
7	26606	25231.308848906915	0
7	26615	25233.354582980819	1
7	26616	25233.923921387499	0
7	26630	25240.390785480718	1
7	26641	25244.563818002866	0
7	26700	25270.603048047229	1
7	26701	25271.914313374228	0
7	26810	25372.640624187964	1
7	26811	25374.21057256917	0
7	26835	25405.188246284871	1
7	26836	25405.427988038253	0
7	27062	25686.401898450568	1
7	27066	25688.494961369479	0
7	27150	25743.501539364482	1
7	27151	25744.633216865257	0
7	27160	25746.586307653229	1
7	27162	25748.082841143994	2
7	27163	25748.094880929299	1
7	27166	25749.560133129254	0
7	27175	25751.768673488305	1
7	27176	25752.94811848969	0
7	27340	26000.011759370845	1
7	27341	26000.247764803822	0
7	27440	26124.48846572832	1
7	27441	26125.025481758727	0
7	27455	26147.416334663104	1
7	27456	26147.696765221857	0
7	27500	26186.834358796734	1
7	27501	26187.189303635511	0
7	27510	26190.818354063439	1
7	27511	26191.563606655814	0
7	27545	26213.066031396807	1
7	27546	26214.26795000066	0
7	27555	26216.403157734953	1
7	27556	26217.651873429352	0
7	27635	26294.32058043021	1
7	27636	26295.227526897222	0
7	27665	26317.142536518394	1
7	27666	26317.853144404026	0
7	27795	26421.244625871001	1
7	27796	26421.762371905041	0
7	27835	26459.281852151764	1
7	27836	26459.700054532918	0
7	27885	26513.574185583726	1
7	27886	26514.527639492705	0
7	27927	26560.814332910487	1
7	27941	26565.990112609039	0
7	28055	26718.937310580504	1
7	28057	26719.521849353125	2
7	28058	26719.748265809562	1
7	28061	26721.546490761261	0
7	28065	26721.593825275187	1
7	28066	26722.989887034889	0
7	28165	26799.579269427792	1
7	28167	26799.970971120733	2
7	28168	26801.078647245226	1
7	28171	26802.899490345588	0
7	28175	26804.079191080213	1
7	28176	26804.713306230253	0
7	28210	26832.201628151583	1
7	28211	26833.508109262224	0
7	28250	26880.357722509873	1
7	28251	26880.471486454577	0
7	28610	27276.360946170435	1
7	28621	27280.555929616158	0
7	28650	27310.789007704795	1
7	28651	27311.29490320444	0
7	28780	27453.218618264622	1
7	28781	27454.047550487901	0
7	28810	27470.2168733916	1
7	28811	27471.016932963537	0
7	28915	27521.079817141983	1
7	28916	27522.461338942451	0
7	28940	27539.364925066611	1
7	28941	27540.634261354915	0
7	29020	27639.215980994961	1
7	29021	27640.871142708414	0
7	29075	27681.290088789138	1
7	29076	27681.587926876676	0
7	29120	27716.039689073842	1
7	29121	27716.507352627839	0
7	29165	27761.293283862053	1
7	29166	27762.429301865157	0
7	29275	27903.725187330396	1
7	29276	27905.259766201216	0
7	29305	27914.591976109679	1
7	29306	27915.917026568938	0
7	29365	27972.842371391099	1
7	29366	27974.114039534386	0
7	29575	28263.736648312044	1
7	29576	28264.437752449037	0
7	29585	28266.500990421992	1
7	29591	28269.256263615088	0
7	29620	28286.451818724476	1
7	29621	28286.96763119749	0
7	29731	28357.221719132331	1
7	29739	28359.355970120917	2
7	29743	28362.465148146646	1
7	29746	28364.216218052814	0
7	29960	28633.41371257524	1
7	29961	28634.530283813299	0
7	30090	28799.086702936447	1
7	30091	28799.384730906069	0
7	30300	29032.698779812782	1
7	30301	29033.714911505352	0
7	30515	29194.96382217576	1
7	30516	29195.528327047391	0
7	30562	29232.197889245263	1
7	30566	29234.586706738375	0
7	30710	29361.882946255029	1
7	30711	29362.077977767069	0
7	30745	29388.644677981616	1
7	30746	29390.111854957476	0
7	30775	29418.830089439995	1
7	30776	29419.385935528076	0
7	30800	29437.135751701751	1
7	30801	29438.30903451145	0
7	31015	29661.540149953191	1
7	31016	29663.061746447339	0
7	31052	29673.902406317472	1
7	31066	29680.29869420564	0
7	31120	29718.154040451352	1
7	31121	29719.364583774521	0
7	31160	29750.257860320178	1
7	31161	29751.162951161386	0
7	31395	29999.58086901246	1
8	11807	10995.019389576526	1
8	11809	10995.660940663411	0
8	11834	11003.882461142414	1
8	11839	11005.945488286413	0
8	12780	11819.770535841372	1
8	12781	11820.064034718386	0
8	12890	11909.362876245628	1
8	12891	11910.390592876017	0
8	13240	12249.461840984449	1
8	13241	12249.585232635158	0
8	13974	12956.365361596885	1
8	13979	12957.829088995917	0
8	14000	12967.266249896801	1
8	14006	12970.364715775872	0
8	14315	13272.16790185082	1
8	14316	13274.969362554518	0
8	16662	15334.414929184364	1
8	16664	15334.535222382084	0
8	18192	16744.048240575107	1
8	18199	16745.98778414014	0
8	18202	16747.479316266557	1
8	18206	16751.711765131882	0
8	18429	16948.792160897654	1
8	18434	16950.720451480718	0
8	18437	16952.110391253372	1
8	18442	16953.855412485031	2
8	18446	16955.801676645595	1
8	18449	16957.372360827358	0
8	18645	17260.980485643115	1
8	18649	17261.958788437796	0
8	19097	17678.617079429462	1
8	19101	17680.112460635347	0
8	19382	17960.000503908273	1
8	19384	17960.873393372352	0
8	19770	18382.184347819437	1
8	19771	18383.938226472485	0
8	20744	19426.387528193504	1
8	20748	19427.165964816919	0
8	23992	22577.492834196092	1
8	23994	22578.327157785916	0
8	26567	25219.004100155693	1
8	26569	25219.541233793623	0
8	26795	25367.187545403264	1
8	26796	25367.386544741259	0
8	28100	26762.551122972798	1
8	28101	26763.737804740434	0
8	28417	27050.649240409864	1
8	28419	27050.702943791307	0
8	30170	28893.861427336114	1
8	30181	28900.041834574231	0
9	14575	13466.470907479851	1
9	14576	13473.843317281623	0
9	24385	22923.336544199482	1
9	24386	22923.641114643331	0
9	28155	26792.185793036122	1
9	28156	26795.595664148172	0
9	28160	26797.23537306874	1
9	28164	26799.579269427792	0

