version 2
run Third_exit_2-19-20191114-11:42:55-9010
attr configname Third_exit_2
attr datetime 20191114-11:42:55
attr experiment Third_exit_2
attr inifile omnetpp.ini
attr iterationvars ""
attr iterationvarsf ""
attr measurement ""
attr network ResponseTimeNetwork
attr processid 9010
attr repetition 19
attr replication #19
attr resultdir results
attr runnumber 19
attr seedset 19
param **.Source.interArrivalTime exponential(6s)
param **.jobPriority bernoulli(0.8)
param **.PS.serviceTimeU1 "uniform(1.2s, 2.0s)"
param **.PS.serviceTimeU2 "uniform(2.4s, 2.8s)"
param **.SS1.serviceTime exponential(1.4s)
param **.SS2.serviceTime exponential(2s)
param **.PS.exitProbability bernoulli(0.2)

vector 0 ResponseTimeNetwork.sink lifeTimeU1:vector ETV
attr interpolationmode none
attr title "lifetime of arrived jobs U1, vector"
attr unit s
vector 1 ResponseTimeNetwork.sink totalServiceTimeU1:vector ETV
attr interpolationmode none
attr title "the total time spent  by arrived jobs U1, vector"
attr unit s
vector 2 ResponseTimeNetwork.sink lifeTime:vector ETV
attr interpolationmode none
attr title "lifetime of arrived jobs, vector"
attr unit s
vector 3 ResponseTimeNetwork.sink totalServiceTime:vector ETV
attr interpolationmode none
attr title "the total time spent  by arrived jobs, vector"
attr unit s
vector 4 ResponseTimeNetwork.QueueU1 queueLength:vector ETV
attr interpolationmode sample-hold
attr title "queue length, vector"
vector 5 ResponseTimeNetwork.sink lifeTimeU2:vector ETV
attr interpolationmode none
attr title "lifetime of arrived jobs U2, vector"
attr unit s
vector 6 ResponseTimeNetwork.sink totalServiceTimeU2:vector ETV
attr interpolationmode none
attr title "the total time spent  by arrived jobs U2, vector"
attr unit s
vector 7 ResponseTimeNetwork.QueueU2 queueLength:vector ETV
attr interpolationmode sample-hold
attr title "queue length, vector"
vector 8 ResponseTimeNetwork.SS1 queueLength:vector ETV
attr interpolationmode sample-hold
attr title "queue length, vector"
vector 9 ResponseTimeNetwork.SS2 queueLength:vector ETV
attr interpolationmode sample-hold
attr title "queue length, vector"
0	10660	10002.737694075107	1.487754090317
0	10665	10004.414743598784	7.81877987577
0	10670	10012.200341481147	1.614368855208
0	10675	10021.873042625063	1.259470639378
0	10682	10024.292038395333	1.725475868024
0	10697	10037.72438810126	1.275734213553
0	10702	10039.087054376799	2.092438369022
0	10705	10040.752446191508	17.988962417306
0	10710	10050.752077635583	1.421795337275
0	10715	10058.459592295426	1.806149276718
0	10722	10067.230168826359	1.925759964064
0	10725	10069.058621241565	2.210426209325
0	10742	10078.283016243797	2.46516505437
0	10757	10088.338419536134	1.808459065482
0	10760	10089.843348168401	3.295195692018
0	10767	10103.779545576496	1.381261198968
0	10770	10105.158791292829	2.085736832949
0	10775	10114.170050068863	1.811195936799
0	10785	10127.458559542732	4.202726398169
0	10790	10136.339662184948	1.786581028253
0	10800	10154.822670946382	4.784405023784
0	10805	10160.925189664932	1.252904510312
0	10812	10162.644892614158	1.419550825842
0	10815	10164.203931505242	2.486596038156
0	10830	10181.809110082946	10.269503557476
0	10840	10194.35701191157	5.168745384106
0	10845	10203.80731981458	1.434086806327
0	10855	10208.512103758705	4.281663882719
0	10867	10215.986401459563	3.047008832262
0	10870	10217.523707468982	2.743013724963
0	10880	10233.053890758348	3.320649258382
0	10885	10241.435691146795	1.261994723976
0	10890	10267.795368445883	1.994509331696
0	10910	10283.908606492963	5.615690028538
0	10915	10288.0002284592	1.941833061539
0	10942	10310.815189654454	1.572631072016
0	10970	10321.715397165454	16.017057757331
0	10980	10330.014895380176	1.596857740544
0	10987	10334.632891229948	1.393451405317
0	10992	10336.158789218998	2.685027313907
0	11005	10340.675249597094	2.269436579413
0	11010	10344.418555148575	1.707457329333
0	11025	10353.134467948413	3.753332359563
0	11030	10358.33824827552	1.81368645858
0	11037	10360.766309543801	1.463201151788
0	11042	10362.40307596988	2.56247727108
0	11047	10363.619961610538	1.30017978668
0	11050	10365.392554947835	2.108707376735
0	11062	10377.872232446461	4.912402253546
0	11065	10379.859244826264	2.801646780274
0	11077	10390.37946848399	3.259780903314
0	11085	10402.014279556284	1.600434608012
0	11100	10418.237411655651	1.815213414685
0	11107	10427.100611474363	1.658734586835
0	11110	10428.752532896211	1.97841129693
0	11120	10438.813697716769	4.71038313177
0	11127	10442.695715268146	1.464598604478
0	11139	10445.844296383861	2.672754863654
0	11142	10447.292227354835	5.632115564921
0	11150	10475.937347333939	1.741421052814
0	11155	10478.981264244586	1.22108874917
0	11162	10483.846851978731	1.753832018748
0	11171	10485.708145851736	2.900935177386
0	11178	10487.013894085494	2.536640474091
0	11188	10490.384554515501	5.805014036949
0	11193	10491.92433807878	5.775191700581
0	11196	10493.650133714361	7.294894675989
0	11199	10495.035692891573	10.461116937178
0	11202	10496.363998546546	6.940169997209
0	11210	10511.749747014464	1.811869743094
0	11215	10525.464131303644	1.310459987447
0	11220	10539.57592091405	1.704434144124
0	11225	10553.353088540422	1.220545583963
0	11230	10562.699262991554	1.717205911316
0	11235	10570.070068853965	1.63414308168
0	11250	10579.938374979058	1.414288428053
0	11255	10584.609375980756	1.337595371902
0	11265	10597.607473506319	2.202437799791
0	11275	10604.190558303566	10.322232926397
0	11285	10622.269949610605	1.21645599436
0	11301	10635.453746700551	1.472354113869
0	11304	10636.924698576036	9.104257158481
0	11317	10642.274803166541	2.445856711832
0	11322	10643.579370411376	8.942349817686
0	11327	10645.570044662694	10.648310331982
0	11335	10648.868514975994	3.64352241339
0	11340	10652.599397155094	1.457956364937
0	11345	10659.302433581063	1.925577592291
0	11350	10684.296051297373	1.731131254137
0	11360	10690.527490260877	5.990058314872
0	11365	10696.889662344742	1.387328865379
0	11370	10699.179150126846	1.576951493323
0	11382	10717.429507363157	4.277809611242
0	11387	10719.365965462045	2.179684970084
0	11397	10725.942012836417	8.457867374221
0	11410	10734.994532272421	1.414346562885
0	11415	10737.304971461711	1.555585101061
0	11422	10761.675642412894	1.579340398684
0	11425	10763.609550442726	2.520847850729
0	11430	10781.019111107263	1.727715830691
0	11440	10786.762391077785	1.343232333846
0	11455	10799.251394800025	1.872906929255
0	11467	10815.727588215965	1.866903167032
0	11470	10817.543699756201	2.343161860898
0	11475	10832.150763533795	1.386611822806
0	11480	10838.601604664817	1.583518387564
0	11485	10842.585273557284	1.51949130632
0	11500	10855.995310375501	4.184229051495
0	11505	10857.90692291725	1.836713906005
0	11515	10864.796907060614	1.424235727452
0	11530	10877.588063125163	1.663225580938
0	11535	10898.955055262316	1.738158813491
0	11540	10908.366646987207	1.605138063617
0	11547	10910.180020160838	1.46374719739
0	11550	10911.587442711233	2.565855796917
0	11562	10930.636379663326	5.056466218177
0	11570	10934.328969344499	4.695815302699
0	11580	10951.03282742487	1.310634985566
0	11585	10955.361489057911	1.219063424319
0	11592	10975.568761150836	1.298279884458
0	11595	10977.346214131935	2.097651193856
0	11602	10989.25371987621	1.590270491503
0	11605	10990.714043802271	2.359678890704
0	11610	10997.581811876909	1.321977131069
0	11615	11000.444531462292	1.275124544278
0	11620	11006.271243101492	1.365047671832
0	11632	11010.956983469559	3.592783792591
0	11637	11012.310853811672	2.494115416825
0	11647	11030.348996455128	1.870550445095
0	11655	11039.378834526103	1.305027844571
0	11670	11046.352906667822	1.665925412998
0	11680	11052.572677795372	3.959115468432
0	11697	11075.997081942001	1.764201458916
0	11704	11077.427356187889	2.042917641022
0	11707	11078.702492409275	2.589789754481
0	11716	11080.665266777837	3.763353885642
0	11722	11083.707416611426	3.282037880201
0	11725	11085.039938172214	4.422156795968
0	11730	11087.59472521144	8.104491983165
0	11740	11092.195730714637	4.319533783796
0	11745	11095.086855267282	1.608648684435
0	11750	11098.941560625479	1.358097195625
0	11755	11100.765292284287	1.468914668821
0	11762	11109.084565855921	1.747490559891
0	11767	11110.689289008998	3.325726962575
0	11770	11112.51454934048	2.126579872841
0	11775	11121.963709215665	1.335819367878
0	11780	11125.154858755938	1.483214155585
0	11785	11130.185816354904	1.710788038559
0	11800	11137.549374658373	6.4158808297
0	11817	11151.483415815895	2.34751190232
0	11825	11154.630547266369	1.909561991571
0	11844	11161.525160105494	6.451597729865
0	11847	11163.517191053708	5.722054290589
0	11850	11164.927388277245	4.54139606925
0	11860	11180.159533364686	1.534271938168
0	11872	11194.313315355838	3.31537638023
0	11882	11197.67543462286	3.685613257002
0	11885	11199.098559837735	2.477242092511
0	11890	11203.521375513861	1.257800078392
0	11895	11205.956865930935	1.488063299656
0	11900	11212.746955368728	1.738575674407
0	11907	11226.495026582328	1.403725883178
0	11917	11230.290374345367	3.111737832388
0	11920	11232.111541753297	3.148817217568
0	11925	11239.278124947149	1.635905449651
0	11930	11245.679041126596	1.537137764879
0	11937	11259.000039793702	1.341811101884
0	11942	11260.850702589901	2.566505269374
0	11947	11262.240673252905	2.796226198741
0	11955	11265.122305011167	3.139598364247
0	11960	11273.201114014898	1.842386160791
0	11967	11284.148436444444	1.406828068569
0	11970	11285.663849814241	1.811506460738
0	11985	11300.499870922543	5.309184750542
0	11990	11304.906572660934	1.81481747143
0	12000	11310.982757644293	3.279659442914
0	12005	11320.797374471867	1.80251287017
0	12021	11338.909318577425	2.796517077911
0	12024	11340.514312603997	5.132141454704
0	12052	11352.038167434519	4.665877670302
0	12062	11374.684155578574	1.462412233651
0	12072	11379.182702017938	1.893385229446
0	12075	11381.02571657895	7.015920013444
0	12082	11388.803921524692	1.698400802724
0	12100	11395.131348666247	5.830993974065
0	12105	11398.667186366539	1.347069327161
0	12112	11405.826540503912	1.748840884492
0	12115	11407.649846866615	1.88757788884
0	12120	11415.515167799548	1.904684336483
0	12125	11439.009125201343	1.393420273811
0	12130	11445.596980658503	1.887226989679
0	12135	11454.871771549535	1.438885388151
0	12154	11467.186981108835	5.27819286698
0	12157	11469.058759186467	3.062803770001
0	12170	11473.51227917995	1.796014164855
0	12175	11475.360782909836	4.709050967729
0	12180	11477.849522957833	1.720200972445
0	12195	11488.52098488265	5.654821496363
0	12200	11493.245806658752	1.236152033322
0	12205	11503.514907464477	1.73191251047
0	12210	11508.107541460751	1.837411492877
0	12224	11513.995501751812	3.897094802883
0	12229	11515.812583490634	3.613177820826
0	12234	11517.370524683023	1.576013387604
0	12237	11519.327582953671	2.172658834891
0	12255	11549.17206982506	8.236379977654
0	12267	11564.665593468998	1.818714131415
0	12275	11567.373023148668	1.501874484397
0	12280	11573.511427223014	1.949035556242
0	12290	11580.070909744879	2.619817174886
0	12297	11585.940548668985	1.998603246175
0	12300	11587.363664190468	2.145561330534
0	12305	11596.74674438543	1.725902339816
0	12310	11601.60458764508	1.206449191459
0	12320	11608.053214899501	3.746195803498
0	12332	11615.693590503466	1.795135601237
0	12340	11619.11592121228	4.533911993352
0	12347	11621.865069228169	1.293623411842
0	12355	11645.262043514553	1.833502954617
0	12360	11649.211044524772	1.87039832063
0	12367	11658.512319024655	1.59927402921
0	12370	11660.385532403554	2.743383613916
0	12375	11663.246370159996	1.534066374786
0	12385	11675.254015120159	3.754242228959
0	12395	11687.464359118432	4.550237626435
0	12405	11697.887013693655	1.518319800496
0	12422	11708.807953998643	1.473731522076
0	12425	11710.681664024676	6.222776820908
0	12430	11722.394222956601	1.267669296451
0	12435	11738.45317448691	1.493503440358
0	12445	11744.753548571391	4.295622922406
0	12450	11747.546689962997	1.826499069668
0	12455	11749.483407526091	1.420257027075
0	12460	11756.528194252287	1.844723371416
0	12480	11772.666181343377	1.79962408788
0	12492	11782.720267391642	1.62928158585
0	12497	11784.083840309334	5.265725634295
0	12505	11789.859679533723	6.757256722329
0	12510	11794.302749759923	1.629381928965
0	12517	11796.424404546501	1.746935525164
0	12532	11801.749809415577	1.764763317144
0	12535	11803.117178162312	8.153457813612
0	12547	11837.549293295123	2.62901095204
0	12554	11839.341166183368	2.621033291826
0	12573	11843.852854217232	4.450331163372
0	12576	11845.648628038929	4.63980661898
0	12579	11846.883220794254	5.610571966572
0	12585	11850.14543478416	11.651892785061
0	12590	11852.366150712251	14.75723710258
0	12595	11859.863953203008	1.974113534577
0	12607	11864.33932398641	2.846501093405
0	12610	11866.135768290697	4.66324324943
0	12625	11890.242172008085	4.504083677824
0	12630	11892.097863726699	1.49305745326
0	12637	11899.374482441143	1.589967641421
0	12640	11901.37360588909	2.141452301386
0	12655	11911.128336230639	7.3204504027
0	12660	11913.42507516698	1.269933806732
0	12685	11928.092876810084	1.31732033249
0	12690	11931.9359412373	1.679788180813
0	12695	11936.999921409373	1.854776961356
0	12710	11961.976759715867	3.266408964235
0	12722	11978.514306937544	1.94807202654
0	12732	11981.307180142048	1.280983521417
0	12737	11982.900674046221	7.032731899995
0	12740	11984.163421808201	1.81671034412
0	12745	11996.219703700497	1.238872776739
0	12760	12031.322581053284	1.891993032023
0	12767	12035.132461298557	1.724511486851
0	12777	12039.149835929698	4.937088002256
0	12785	12047.51558615354	1.943833211809
0	12792	12053.381841662623	1.511285717972
0	12795	12055.283881352566	1.938020623704
0	12812	12070.136483377466	1.938477241807
0	12817	12071.583184906343	9.193179775074
0	12830	12079.903150489598	8.700526262598
0	12855	12092.474786240119	1.999945383891
0	12858	12093.774591553468	7.226647107697
0	12863	12095.755447697524	4.703552051488
0	12866	12097.271782847192	10.388955489967
0	12871	12099.004632650945	7.065748687663
0	12874	12100.86467327464	8.752677109675
0	12880	12104.229984673184	5.593662702952
0	12916	12116.935393029747	1.697456619702
0	12919	12118.164975000468	2.598869156803
0	12922	12119.711667682526	25.695767655693
0	12927	12121.370914928352	4.548567910491
0	12935	12124.987993338668	4.0169991651
0	12947	12135.772643825876	1.596159770526
0	12955	12147.867560698239	1.534714260511
0	12960	12156.168585368012	1.631047089398
0	12967	12160.721338457276	1.827410998382
0	12972	12162.618164790084	3.505454995744
0	12975	12164.543133397063	2.975838607177
0	12982	12166.841249894897	1.369174652919
0	12987	12168.200693951535	1.630092349921
0	12992	12169.902801922324	2.929199041664
0	12995	12171.353850926447	2.831863940219
0	13005	12183.775017593913	7.43266367122
0	13010	12200.852582500605	1.32232111115
0	13017	12223.575318593117	1.931680367701
0	13030	12230.489451213225	4.650110453731
0	13037	12235.614556224068	1.334592146054
0	13047	12239.518779869028	1.777781129815
0	13050	12241.115382058383	2.355314113723
0	13060	12246.490234643019	1.870160667971
0	13067	12248.800988146557	1.211149310879
0	13070	12250.13328409799	1.532121043018
0	13080	12277.975996493175	1.280428554863
0	13085	12279.93274961441	1.910571310669
0	13100	12327.445312770168	1.571302463673
0	13105	12334.23321367279	1.829995521158
0	13112	12349.72290537526	1.940549806505
0	13115	12351.244908417772	2.353548965308
0	13125	12357.761899719281	1.377056607418
0	13140	12374.109535412728	3.879546382174
0	13150	12393.797837919264	1.802054085769
0	13155	12407.728055024745	1.730988474004
0	13166	12420.359034941847	1.722451789305
0	13169	12421.912821383158	2.082937441095
0	13187	12429.025359567943	4.014343345733
0	13192	12430.461671400013	3.16522761083
0	13197	12432.013637747558	11.752721402911
0	13200	12433.541324491741	1.722185797656
0	13205	12435.381140201871	1.714626207761
0	13220	12448.087331259876	1.688469263725
0	13230	12469.785284067508	1.781720709056
0	13237	12472.169577940878	1.996549046785
0	13242	12473.601226467778	1.969628642385
0	13245	12475.20601676586	2.63086388978
0	13250	12479.403690754902	1.410907054134
0	13257	12488.291424949646	1.981226240098
0	13267	12491.372006450213	2.223469252234
0	13270	12493.359615625619	6.85759475831
0	13275	12496.305006616761	1.440675033256
0	13280	12498.282822094694	1.478231170774
0	13287	12508.954599041676	1.763031887263
0	13290	12510.802133383227	3.159165393205
0	13297	12514.694361948809	1.561723835021
0	13302	12516.273845065413	2.278287426039
0	13320	12522.918097985652	2.767897694467
0	13330	12537.471439093907	1.679119146429
0	13335	12553.805761982937	1.490668064728
0	13342	12571.84653941679	1.861608437449
0	13345	12573.260508157007	1.835421361512
0	13375	12602.112446972581	4.302888329551
0	13380	12604.387545547977	15.609414254108
0	13390	12616.491469056786	1.697260942496
0	13410	12636.744527986612	1.854494786263
0	13415	12647.170080099172	1.71818491146
0	13420	12655.300038524759	1.422059576027
0	13430	12661.583027433561	2.763584030442
0	13435	12675.18111145223	1.883869735152
0	13449	12692.820875794169	1.824164652266
0	13452	12694.331480610844	5.646342491356
0	13464	12698.097418345535	6.94522510595
0	13472	12701.925930705132	4.460455324347
0	13481	12703.724551340217	4.898039813534
0	13489	12707.177355132276	4.823393613899
0	13494	12708.543367475109	4.847946108703
0	13497	12710.177145635919	3.485334006136
0	13500	12712.036705516675	15.258598489359
0	13505	12719.061117171217	1.89276260715
0	13510	12720.780537276876	1.511925028637
0	13515	12732.150463515084	1.39965922907
0	13547	12751.731339825439	2.634591411526
0	13550	12753.685098148259	4.14027887631
0	13562	12771.623123436192	2.412922993498
0	13565	12772.920844061444	1.671789661777
0	13570	12783.07259336807	1.745928238891
0	13575	12787.345362348633	1.825134646147
0	13580	12791.268044741244	1.957417738996
0	13585	12799.378412271991	1.512813585438
0	13605	12831.938645854468	1.613248535618
0	13610	12834.911581924127	1.327892123908
0	13615	12839.487907177902	1.257945533469
0	13620	12841.299773535195	1.42708349172
0	13625	12846.567147387163	1.95602298528
0	13630	12849.276067373202	1.670099440403
0	13640	12854.285897022531	1.497098233737
0	13645	12859.955817490165	1.296922909655
0	13650	12867.208930565009	1.878328863531
0	13667	12876.464138186586	2.665162618095
0	13672	12878.426449825105	3.284863949768
0	13680	12887.4741572824	1.744220177457
0	13690	12909.853531775977	1.808717901073
0	13700	12915.784230436633	1.544992838241
0	13707	12927.98349430693	1.868427233584
0	13710	12929.314176541024	2.398000729903
0	13720	12944.323891052188	5.575994047742
0	13735	12958.827080721987	7.399475488381
0	13740	12965.482839402144	1.425644572265
0	13747	12977.062192279327	1.65795200374
0	13755	12980.28225541393	1.316238434054
0	13760	12982.473779968069	1.84026005324
0	13765	12984.932443629908	8.428558177714
0	13770	12993.953703195717	1.964782734402
0	13780	13009.970091423623	2.431227786162
0	13785	13013.053195537035	6.004153392387
0	13790	13020.993308169887	1.730160807446
0	13795	13023.733840030618	1.493450687453
0	13802	13033.99516159092	1.610638058931
0	13815	13043.64388083195	9.791838152611
0	13820	13074.056503354834	1.221905839443
0	13827	13077.576064095293	1.436813621037
0	13834	13079.418963479829	2.376721623703
0	13837	13080.695005934332	2.960294168692
0	13840	13081.897726596166	3.239416940858
0	13845	13094.240188774957	1.658719698153
0	13850	13100.424209324416	1.368619212881
0	13860	13103.997025973614	1.911194691621
0	13865	13106.304790098692	1.772868832015
0	13877	13115.125337425963	1.21193072442
0	13880	13116.819602649071	2.068363693276
0	13885	13134.693733768213	1.948962404206
0	13892	13138.563865960027	1.545553700998
0	13900	13142.160603928894	1.561876060069
0	13935	13178.858934924748	1.213214491121
0	13940	13186.360267965838	1.327963175811
0	13947	13197.29482418323	1.308774725907
0	13950	13198.779156103042	2.32332590924
0	13955	13200.230215716016	1.383855047077
0	13960	13207.652943584828	1.300425155647
0	13972	13221.461492466257	1.433957915567
0	13982	13224.465453628713	2.50611548977
0	13985	13226.354285596946	3.856621251259
0	13995	13258.805972451599	1.421083338931
0	14012	13266.12813130221	2.574620609976
0	14025	13287.234442719016	1.892121264525
0	14030	13290.304776234429	1.803625245579
0	14035	13293.786700718986	1.856842209212
0	14040	13298.873796091843	1.418752473779
0	14060	13329.824262251208	7.821863043018
0	14070	13340.389414962125	2.554082389284
0	14095	13365.104613166862	1.896465145238
0	14105	13372.298559489422	4.99054911873
0	14110	13375.153352528798	1.502256668545
0	14115	13380.037665084892	1.35875953231
0	14122	13383.594802499987	1.814619069919
0	14132	13389.889244177347	1.620722206868
0	14141	13391.629115410117	9.201401454822
0	14149	13395.268456090582	3.739773824605
0	14152	13396.843575499547	5.607377915637
0	14160	13401.588557595298	1.484683991969
0	14170	13416.653237674247	3.504636875551
0	14175	13453.819860877712	1.392193458974
0	14180	13467.652507892948	1.684673569351
0	14185	13472.376337134109	1.269561315328
0	14202	13502.73710875749	4.839248906737
0	14205	13504.271888108508	2.459803160128
0	14210	13521.748019049824	1.351332370192
0	14215	13525.748267940792	1.906270384043
0	14220	13529.721775604999	1.416403151862
0	14225	13546.194029776513	1.394960137829
0	14242	13557.643257998435	2.750008753448
0	14247	13559.143897645122	2.168470074856
0	14255	13564.979889779291	1.559903890826
0	14260	13570.883513136782	1.717958375625
0	14265	13585.79474686429	1.854634840041
0	14270	13592.612359339741	1.360614893585
0	14280	13607.751817988473	1.740198016353
0	14285	13629.430794810782	1.261444472335
0	14290	13642.015684950907	1.894052976742
0	14302	13652.183753972026	2.973492612097
0	14305	13653.948307009684	5.086559597403
0	14310	13658.564975591182	1.728877437487
0	14320	13685.767463887677	2.400171027001
0	14325	13694.552694064971	1.762175211869
0	14330	13701.339126846235	1.56909069214
0	14337	13704.656195846757	1.734870917164
0	14350	13710.905142621679	6.479853174229
0	14357	13722.738487693542	1.89717682898
0	14360	13724.719236787656	2.703192935328
0	14365	13729.843835884651	1.350802986883
0	14370	13731.784874655052	1.865481516346
0	14375	13740.845940700431	1.335294610634
0	14380	13747.846212316832	1.87535422761
0	14392	13753.856011461194	4.852819322828
0	14395	13755.814375974152	3.201130100411
0	14400	13758.909533506392	1.784584895708
0	14405	13771.663216633052	1.342475188151
0	14415	13777.494931247508	4.848823822244
0	14422	13785.947967490176	1.946954731829
0	14427	13787.24102227054	2.411231661437
0	14440	13799.586562588691	3.146152748885
0	14452	13812.873522971886	1.809008592367
0	14457	13814.800651842858	3.272884724272
0	14460	13816.6725954899	3.636213652452
0	14465	13819.880433712986	1.67047509905
0	14470	13822.648189762832	1.584808404744
0	14475	13827.356794005369	1.555631082319
0	14490	13847.289006976798	1.363243299536
0	14495	13850.903048700672	1.410119197518
0	14507	13855.707738834324	1.461492053233
0	14510	13857.675295025001	5.948741647429
0	14515	13860.934999482601	1.362487102672
0	14522	13870.295429700386	1.389959250763
0	14525	13871.818957761262	2.089175396941
0	14535	13886.40119205421	5.308958048129
0	14542	13896.094035879108	1.522565536201
0	14545	13897.933539025816	2.126916863862
0	14555	13925.878509516439	1.808505620807
0	14562	13935.168674017771	1.564903299138
0	14565	13936.484478910177	1.514992134744
0	14570	13941.804662034627	1.61009196993
0	14585	13962.448187753988	4.719844638672
0	14590	13974.311584879333	1.785693846084
0	14595	13996.142401203894	1.420545439981
0	14600	13997.910182699587	1.242985032871
0	14605	14006.672488433183	1.77520009391
0	14612	14015.843059327305	1.483598910458
0	14620	14019.754422963949	5.29071596872
0	14625	14021.722157872423	1.268201931193
0	14630	14025.434002864722	1.425117274188
0	14635	14031.161396503568	1.802264930308
0	14645	14034.614413423264	2.984407134577
0	14650	14037.822074654668	1.986475258134
0	14655	14043.649000677855	1.908874648437
0	14670	14059.472455975571	1.66328554377
0	14684	14068.386590380966	1.812783015519
0	14689	14069.984388918243	2.673669473723
0	14704	14074.697028491646	6.78378604051
0	14709	14076.092826904356	11.294664900547
0	14724	14080.911037249195	1.938255198486
0	14727	14082.648205699103	2.827103900527
0	14730	14083.873110197188	9.06520731643
0	14742	14089.599795497478	5.244132982282
0	14747	14090.944723103278	2.382327990878
0	14754	14092.747225564987	1.968661666385
0	14757	14093.952076059662	2.365705327552
0	14772	14099.320092843182	7.034266085018
0	14780	14108.739494016715	1.800916890241
0	14797	14120.57674099158	2.524680995611
0	14800	14121.951037131692	1.526096343996
0	14825	14138.668204625025	15.41450533827
0	14830	14140.723991137757	1.565575124137
0	14835	14142.812759880567	1.208113480918
0	14842	14145.263897974845	1.773660530709
0	14845	14146.633493663799	1.854830629305
0	14850	14161.911440124022	1.630900175683
0	14862	14167.717623817823	3.920463667858
0	14882	14201.747867285356	1.389291066676
0	14885	14203.737764274597	3.079230326406
0	14895	14215.287133697729	1.920545294322
0	14910	14226.419975118334	1.449780890346
0	14915	14230.036107709845	1.304835386015
0	14920	14240.819065315754	1.455373910256
0	14925	14252.62497204666	1.266786973178
0	14935	14259.622074754196	5.417634121817
0	14950	14265.592699689155	3.279072673906
0	14955	14275.734257699507	1.522514148057
0	14960	14295.039389050448	1.62769413013
0	14975	14331.979303443326	3.699154072971
0	14980	14333.694104261633	1.522044973634
0	14985	14343.393923352455	1.993501863815
0	14990	14353.339169062798	1.413901485875
0	14995	14355.703482045867	1.579146807268
0	15002	14358.460385174065	1.523973791115
0	15005	14360.350268518313	2.784408976826
0	15010	14366.137231920275	1.515838930011
0	15015	14368.601644667915	1.537170939147
0	15020	14370.469765034825	1.734874804318
0	15035	14396.643763374428	1.825555272587
0	15040	14403.025524931622	1.716305035725
0	15050	14409.331344363943	5.313641272085
0	15055	14412.204732651397	1.69436161574
0	15062	14414.378138620463	1.599866606854
0	15065	14416.300237605032	3.378462099147
0	15070	14418.348046958484	1.495480579138
0	15080	14422.47878410416	1.808347665098
0	15087	14426.034233778847	1.751162134111
0	15105	14438.211870735637	5.094279021331
0	15110	14446.862246509685	1.262403070368
0	15115	14455.10812339012	1.610355175473
0	15127	14464.222274585091	1.421954000555
0	15130	14466.083974083908	10.173589145632
0	15142	14470.04564533778	2.538158199708
0	15145	14471.653291817051	4.861469407379
0	15150	14475.420678084737	1.67030947227
0	15155	14478.663976098867	1.37749779094
0	15160	14486.573395820435	1.667751883157
0	15179	14501.519005867224	2.894166839266
0	15184	14503.276331467684	5.473353828117
0	15187	14504.753681072723	3.390500725534
0	15190	14506.115623605382	4.186357037845
0	15197	14514.735905258567	1.555952741951
0	15200	14516.443368550972	2.016165759458
0	15220	14526.688590433476	7.124091428141
0	15230	14534.55044778937	3.324009816162
0	15235	14550.312664145855	1.719740822725
0	15240	14566.748226979973	1.25647015404
0	15245	14570.10570595948	1.862950365059
0	15252	14581.780394551745	1.928033735417
0	15267	14589.548242515571	1.663555436768
0	15270	14590.807330797858	9.143208172889
0	15280	14610.246386781468	7.899568293122
0	15307	14620.080198244159	8.531676813551
0	15312	14621.417831471902	6.358206626772
0	15317	14622.848045451906	2.377598993616
0	15320	14624.393382840198	8.67901151769
0	15325	14626.583217997252	1.6740272725
0	15335	14635.979552153606	2.393243706189
0	15342	14645.731160543773	1.75666733589
0	15345	14647.577848167073	2.189859449044
0	15350	14650.712674093233	1.696768794954
0	15357	14663.920436579624	1.526234352961
0	15370	14670.433039416212	6.764267524585
0	15384	14693.998050010214	1.722305416776
0	15387	14695.94724356235	3.064477250948
0	15412	14706.025439164729	7.376873178733
0	15422	14712.951467500805	1.73654066883
0	15434	14718.024192893252	1.410332505032
0	15442	14721.418145280637	3.616853937807
0	15445	14723.368855281107	6.129732295735
0	15450	14733.386189397486	1.21102981437
0	15455	14742.959449540019	1.313491351344
0	15460	14748.041982795148	1.353053307533
0	15472	14765.957021223539	1.302553849109
0	15485	14772.987883248119	1.898580885492
0	15495	14818.816462898944	1.899689853005
0	15500	14823.283715537238	1.26202106718
0	15505	14838.152068518257	1.737395537458
0	15510	14844.766849026176	1.215527512506
0	15515	14849.272978659292	1.244716773555
0	15520	14888.735799333457	1.553584492765
0	15525	14892.238205482164	1.548105607741
0	15537	14907.088946012062	1.892005179636
0	15545	14912.369986636023	1.292080474272
0	15557	14926.365070229572	3.966844792142
0	15567	14929.799006355543	2.846689604906
0	15575	14935.044756112451	6.941624808578
0	15582	14944.318560006547	1.592797940038
0	15585	14946.094670764621	2.265731159628
0	15590	14952.092302029917	1.658122074232
0	15595	14955.040701240943	1.819290813431
0	15602	14959.08681477414	1.489735320397
0	15605	14960.983798968732	2.877046422584
0	15610	14968.012611907699	1.35366904512
0	15627	14977.215028551525	1.535652374104
0	15632	14978.683405874042	7.299129133335
0	15640	14982.464191559775	4.788171911782
0	15645	14991.870057053958	1.812452309765
0	15650	14994.214581992123	1.61110245958
0	15672	15015.444591062365	8.312695398165
0	15675	15017.153559938481	7.082118315014
0	15680	15024.8780205966	1.253484080918
0	15690	15039.427205496242	3.9331941464
0	15695	15041.941315953873	1.810103912838
0	15700	15044.850352862628	1.651976392791
0	15712	15050.849180124527	1.51520561818
0	15715	15052.729588476023	5.407544955482
0	15720	15057.09616874452	1.885359871574
0	15725	15068.009058096979	1.332175299898
0	15734	15071.337277806893	1.284443100542
0	15737	15072.794805861235	2.175710434578
0	15745	15076.098168920252	4.839218535992
0	15766	15081.22481166271	3.47686904302
0	15771	15082.972143469169	6.737413160317
0	15774	15084.853484074376	4.82550167215
0	15784	15088.136967896647	10.44312415348
0	15795	15092.857339686877	12.458960284198
0	15800	15102.114509388777	1.767024629004
0	15805	15105.124675724652	1.231244506501
0	15812	15112.674289219438	1.703450091556
0	15815	15113.972043744272	1.919988277138
0	15820	15125.278991437678	1.895818149485
0	15825	15134.472882898819	1.936510043778
0	15835	15138.110901416151	3.34050341281
0	15840	15140.791753617865	1.539991032518
0	15845	15143.54891906039	1.893767510355
0	15850	15151.156631662734	1.901939639449
0	15862	15155.079234623917	2.189141869076
0	15867	15156.526745370038	2.281775108301
0	15870	15157.86176478491	2.520593628305
0	15875	15161.002053220024	1.700504528917
0	15889	15170.779968471237	1.856307573617
0	15902	15176.471529806376	9.958735161477
0	15905	15177.900060183339	4.146586785042
0	15915	15182.9141155437	12.975912724586
0	15922	15185.578024675779	1.979017535411
0	15925	15186.780243748508	1.545838531306
0	15930	15191.00646304398	1.923250668682
0	15935	15193.124743410576	1.31977769807
0	15940	15210.360898980051	1.917517157085
0	15950	15223.829032384709	4.949935399554
0	15955	15234.099587372191	1.809001630731
0	15960	15246.110826391782	1.84836453516
0	15965	15256.447889842699	1.912205352448
0	15970	15265.79181952817	1.886874558777
0	15975	15279.569184864181	1.208728771098
0	15980	15289.571739958566	1.742238255963
0	15987	15306.214407029873	1.742033671029
0	15990	15307.712689443244	2.311956624632
0	15995	15310.456942448202	1.90874344483
0	16000	15315.878911648346	1.50443269629
0	16010	15329.265233371735	3.574131050846
0	16020	15337.686378149056	5.619829896167
0	16025	15345.472097864577	1.868642686494
0	16035	15349.286068909583	3.653091975297
0	16040	15351.809561208983	1.50384955965
0	16052	15366.08729312755	1.589102897607
0	16055	15367.711732312849	2.352096555399
0	16060	15384.299943948094	1.450151939131
0	16065	15397.686368426039	1.434120892733
0	16075	15406.53678579457	2.139647979114
0	16092	15415.433802081021	7.348583305149
0	16100	15426.832094715633	1.295340697095
0	16107	15438.690429229692	1.96871764604
0	16110	15440.657668140933	2.700586612404
0	16125	15455.889300370588	1.288149429113
0	16132	15459.834903076389	1.405259696767
0	16135	15461.792866274626	2.575527549827
0	16140	15478.916309997349	1.48224316556
0	16155	15500.03930421398	1.377543839253
0	16160	15518.203238438052	1.341481643356
0	16165	15521.663869043946	1.518766182847
0	16175	15529.437561518526	1.363817960024
0	16182	15534.968332125657	1.512759546191
0	16185	15536.512992667445	2.411839346406
0	16197	15547.606402664946	1.397187620774
0	16200	15549.432274404483	5.193909178798
0	16205	15555.115298954031	1.910282412544
0	16210	15560.95284883546	1.447379661165
0	16215	15576.310634411685	1.741289807484
0	16227	15587.05783342631	2.43540203968
0	16230	15588.358242332613	4.923069842532
0	16235	15593.140079149246	1.517702117749
0	16259	15612.488492338475	2.887598037581
0	16262	15614.081596815143	4.799758197367
0	16270	15617.357570808683	2.711776679221
0	16275	15622.824093936311	1.29507567957
0	16280	15626.297669137166	1.635572607815
0	16299	15647.861070179991	2.768994570961
0	16302	15649.065440422348	2.686020701122
0	16307	15650.697351387753	6.038243189639
0	16310	15652.25662915302	1.90555220111
0	16315	15674.410998282919	1.798958051205
0	16322	15676.10031786441	1.27125941962
0	16337	15680.640988240122	5.603769150144
0	16345	15683.804016690386	5.300545747335
0	16350	15687.693317349242	1.931692486443
0	16362	15701.836700312435	1.939418902621
0	16365	15703.463745921119	3.308052993715
0	16370	15716.266435027487	1.462121872418
0	16380	15723.347514701475	1.631941061201
0	16385	15724.861067088793	4.527578496074
0	16390	15751.270144148851	1.755822875537
0	16397	15759.517277823358	1.712140366621
0	16407	15770.835925021505	12.863560958999
0	16417	15774.109898362515	3.58010190888
0	16427	15779.938062509875	1.685219648667
0	16432	15781.592644799481	2.391761974343
0	16435	15783.491255311648	10.729772211231
0	16440	15785.091404930357	1.224898383208
0	16445	15789.535521193502	1.592020066082
0	16452	15792.567146114478	1.880947975069
0	16460	15796.373570338209	5.630589853798
0	16467	15799.390542704806	1.49818811845
0	16475	15804.240592690827	6.038323363578
0	16480	15808.135184472166	1.446599205956
0	16485	15810.659099042102	1.628074667975
0	16492	15815.231782084682	1.790110870637
0	16495	15817.094275869594	1.929280072787
0	16507	15831.647908079488	4.304676287396
0	16512	15833.367752110263	3.06183561693
0	16515	15834.885933505607	2.39970445621
0	16527	15840.368552701564	4.140381120739
0	16540	15853.305326474621	5.762087384663
0	16545	15867.650376642616	1.348936290666
0	16557	15877.779720538453	1.65190726124
0	16574	15882.406154726416	3.322086521674
0	16579	15884.298044880822	9.56953305751
0	16592	15889.468809414625	11.123164297396
0	16605	15895.513771116557	3.261991509486
0	16612	15899.166651893067	10.72986982548
0	16617	15901.028792854617	2.583094485625
0	16625	15906.832298287366	1.27114068605
0	16630	15912.116023414559	1.514021084644
0	16647	15937.631844483532	3.601936792887
0	16650	15939.330738507986	3.000248602426
0	16655	15954.987780418367	1.287355530635
0	16660	15961.848520086633	1.790861930139
0	16665	15975.37447800868	1.926083553582
0	16681	16001.684994069504	1.583513827994
0	16684	16003.61630782226	2.9392094845
0	16687	16004.876064917277	3.517823004482
0	16690	16006.57549445426	8.454519411726
0	16695	16024.169677202525	1.630277531967
0	16700	16037.805325980473	1.500323489681
0	16710	16048.030889595476	1.839135569334
0	16720	16062.266603160519	7.440815341355
0	16732	16076.533882688597	2.478598530795
0	16747	16082.008665565553	8.932348223316
0	16750	16083.848256408016	2.897357874973
0	16762	16103.173081348287	3.131026174671
0	16770	16108.376373419766	6.590997944042
0	16782	16112.564277271588	1.984789471641
0	16792	16131.040976766294	1.805579952523
0	16795	16132.750854151866	3.043115971066
0	16805	16149.180877097648	1.796707082726
0	16810	16165.219362090214	1.466318713687
0	16815	16174.242589925294	1.569036093727
0	16827	16194.386149951763	1.801125694066
0	16840	16201.151007299609	6.506362565303
0	16845	16204.263752025321	1.214973597042
0	16850	16207.122313990876	1.662710636295
0	16855	16213.640447381875	1.747487780266
0	16872	16230.794918230482	2.606272120642
0	16875	16232.587332517773	2.847105887504
0	16900	16249.196506217581	2.465004206539
0	16912	16252.134505269513	7.162928200658
0	16915	16253.654676440195	12.820732010759
0	16927	16264.321711024305	1.902724160627
0	16935	16267.518757578766	2.176756285379
0	16940	16271.285816161432	1.698942211643
0	16947	16276.012243322385	1.715053470805
0	16955	16279.814720290457	1.208835268952
0	16970	16309.574554209333	3.530430215988
0	16975	16312.471910601463	1.3619010197
0	16980	16314.846059446575	1.484101583809
0	17004	16356.541880085215	7.41805534537
0	17022	16363.51041139093	3.323086040898
0	17025	16364.710548154719	8.956430901467
0	17030	16371.8592028827	1.529471872747
0	17042	16376.155486121028	1.590825140592
0	17047	16377.377179848775	4.32552931793
0	17057	16381.092190120006	1.48520495519
0	17062	16383.026813070672	6.573662924422
0	17085	16394.048142750095	1.360365363397
0	17092	16396.140092889677	4.951925885941
0	17095	16397.681759833071	2.312369835137
0	17100	16399.336595537048	1.218819028512
0	17117	16424.574335179646	3.380651921736
0	17125	16428.005917776646	7.066014979696
0	17130	16434.75895898145	1.732125646435
0	17135	16449.393815637729	1.732953853719
0	17140	16451.494493065602	1.472763247043
0	17150	16469.987447474226	1.247172806226
0	17175	16484.695086287821	2.696178813525
0	17180	16488.069494822471	1.844183219224
0	17202	16503.581421676666	1.639491201353
0	17207	16504.880708569304	1.946099334184
0	17212	16506.78047955373	2.645052702796
0	17220	16513.984980899165	1.40566548612
0	17225	16520.837746325934	1.301502353698
0	17235	16530.7139217038	5.016192427885
0	17240	16542.538021648762	1.951968007907
0	17247	16545.224645195722	1.500959907286
0	17250	16546.535557468429	1.489552213537
0	17257	16550.255576843448	1.869897331111
0	17277	16560.451361794572	2.999585424182
0	17280	16561.910757634591	2.584163792355
0	17295	16574.514580941735	4.354778287648
0	17300	16586.441468169443	1.54524986092
0	17310	16591.066091058687	4.493090140529
0	17320	16607.616889760278	3.205314927423
0	17325	16609.438828060655	1.698747953773
0	17332	16617.279940831047	1.580263082869
0	17335	16619.223245960232	2.000171040498
0	17345	16633.945736423989	3.560430735017
0	17350	16638.676369645048	1.445615346171
0	17362	16642.047128237255	3.335884716843
0	17370	16657.354251789319	1.230047587305
0	17375	16659.341338383617	1.61299736537
0	17385	16666.864911771787	1.907051739357
0	17390	16672.484517365836	1.294424700923
0	17395	16684.679062214523	1.99100517612
0	17405	16695.367039258077	3.957189809285
0	17414	16699.166020705889	1.840555915982
0	17417	16700.606625655632	2.455171465906
0	17425	16706.771966235366	1.462727982551
0	17434	16719.533719738335	1.983938038535
0	17437	16721.015162425623	2.903579758562
0	17445	16724.674707205625	6.080930914613
0	17450	16726.36395166215	1.599588096514
0	17472	16737.019758021023	8.972994442667
0	17482	16740.097837792833	1.577757342596
0	17485	16741.590159526032	5.964383757608
0	17495	16746.094582382867	2.953400260804
0	17502	16751.77524619559	1.334925158694
0	17505	16753.27614675807	1.844236752296
0	17510	16763.875881167219	1.446365790255
0	17515	16768.255492016422	1.23809550833
0	17520	16776.188088295067	1.256195628829
0	17525	16786.200123604663	1.729085381702
0	17532	16796.450520424282	1.437675615214
0	17535	16798.007292835152	1.833536166838
0	17540	16823.378058723257	1.670632795617
0	17545	16826.047746804478	1.834981935471
0	17550	16830.639892894445	1.624833565578
0	17555	16837.138054469674	1.3320082305
0	17567	16868.512068267797	1.376833366975
0	17570	16869.993876490441	2.016027561891
0	17575	16879.168646151085	1.27020376008
0	17585	16886.740790437815	4.606555997775
0	17595	16901.546016866655	2.321430065481
0	17600	16904.016639537197	1.278996359371
0	17605	16911.608670383343	1.299663399905
0	17612	16913.548866404479	1.277925505303
0	17620	16916.826484089603	1.617045110386
0	17635	16922.342288018924	4.649534083221
0	17645	16929.815077711957	4.822801551642
0	17672	16947.863665998253	5.837079199217
0	17675	16949.319562856379	5.358775916345
0	17680	16954.932440738955	1.466124909185
0	17685	16964.820885526675	1.775046232343
0	17690	16968.268348708317	1.684025914222
0	17695	16989.764720056393	1.497276764549
0	17711	17005.582776577099	2.596520055102
0	17714	17006.910924746915	4.918607948721
0	17719	17008.494991681799	3.769102026684
0	17722	17009.980957086831	2.789164058823
0	17735	17019.513092670052	4.627083002451
0	17740	17021.378236597951	1.644240277074
0	17745	17025.946206643686	1.680403030291
0	17755	17064.275865029163	1.555393882694
0	17762	17066.931496586369	5.164500717731
0	17765	17068.837318447882	2.672238987065
0	17770	17070.982876965213	1.860495729372
0	17777	17075.136307800424	1.664897107519
0	17780	17077.023347275753	2.748490543096
0	17785	17093.910768912711	1.701720324531
0	17802	17103.230685811839	3.131837947761
0	17805	17104.810341647617	2.195836434559
0	17810	17113.221144012159	1.575432324223
0	17820	17127.794511843938	1.982934419997
0	17825	17134.77379712958	1.635454009287
0	17832	17143.455579835821	1.761795335077
0	17837	17144.825659717891	1.915353273779
0	17845	17155.769050971165	1.757060793415
0	17850	17157.929809777353	1.489952351153
0	17862	17168.072845710233	1.546719263308
0	17872	17171.835839547551	3.847010533699
0	17875	17173.583126732855	2.216247742187
0	17880	17179.208516298286	1.722245302051
0	17897	17194.338849139485	4.949119172246
0	17905	17197.575382472101	2.818147614073
0	17917	17211.276530947065	2.897552821086
0	17922	17212.870670673339	5.184523041919
0	17930	17220.800771210345	1.240147133172
0	17935	17223.659976883738	1.949374416843
0	17942	17226.036808382011	1.772143269703
0	17957	17231.379977987518	5.597986469061
0	17972	17237.379406000196	2.752172614111
0	17980	17242.767682510313	1.989678398333
0	17987	17257.479834819459	1.553386097588
0	17990	17259.437617073455	2.776461620153
0	17995	17262.675704197946	1.730386659317
0	18002	17264.474073972087	1.448158301786
0	18010	17267.330110984575	1.413054315779
0	18015	17269.079854366467	4.714887313741
0	18025	17273.865838544056	3.063588839433
0	18032	17276.800003356015	1.867186675593
0	18035	17278.047923167696	1.922353780071
0	18042	17288.284888837329	1.502319134772
0	18062	17301.679214227724	2.22283917577
0	18082	17310.337402834087	14.713179375459
0	18092	17313.493106910861	2.465812033087
0	18097	17315.175527726202	5.562560037653
0	18100	17316.591049721553	2.451435540097
0	18105	17322.361264136916	1.725822492503
0	18112	17344.276698059074	1.929448561743
0	18120	17349.214498242472	6.768688378708
0	18130	17375.061120438232	4.791575428743
0	18135	17389.005876637125	1.256152939796
0	18140	17395.095187000116	1.396177092195
0	18145	17396.771863973598	1.661749694124
0	18150	17402.239407605273	1.588578420691
0	18159	17420.98586825061	1.84549239967
0	18162	17422.780533725986	2.962580900289
0	18165	17424.610345108652	4.078769027965
0	18172	17432.467025754635	1.234514640458
0	18179	17434.466261765395	2.352115009298
0	18182	17436.328719927032	2.629254680784
0	18187	17437.714919872243	3.896539458756
0	18190	17438.976185513135	1.457194450524
0	18202	17449.922158803779	3.311571026841
0	18212	17453.270602498378	1.926213017427
0	18225	17457.968347811129	1.517811455298
0	18235	17462.590180130207	2.169911548138
0	18250	17472.204632852981	1.778523240425
0	18265	17476.809990767564	1.402724936633
0	18270	17480.334498793669	1.840760569461
0	18277	17489.503847917972	1.744542523846
0	18285	17494.983718972406	1.571208485588
0	18295	17501.851108406102	3.850150001002
0	18319	17515.812754714699	1.955505539966
0	18330	17520.822631908764	8.012082945715
0	18335	17523.894146414483	1.269461265393
0	18345	17532.372843648486	3.584455125057
0	18360	17539.127614166414	2.432156659539
0	18372	17554.359003911339	2.259617889854
0	18377	17556.301880402476	3.033004010555
0	18382	17557.618044383623	2.710838830099
0	18385	17559.368492764406	2.382599731058
0	18390	17564.642734863163	1.448923057131
0	18402	17568.005741893041	2.719642516437
0	18405	17569.878063930485	4.810741771944
0	18410	17579.96660247695	1.382185584307
0	18429	17597.056291088934	5.549831756762
0	18432	17598.275791153598	4.548679207638
0	18444	17601.767137130822	2.968626089147
0	18449	17603.558919292974	2.252340653292
0	18482	17627.443024415876	1.806333869696
0	18492	17633.805925048065	1.215006149933
0	18495	17635.602475457747	2.526478711435
0	18500	17644.037373299691	1.708568412438
0	18507	17649.392031646229	1.996168836579
0	18510	17651.36578948003	2.251455089154
0	18515	17669.645681659198	1.763533754274
0	18535	17705.592521070779	1.45013931375
0	18540	17711.089640858018	1.282323257811
0	18545	17714.540188258245	1.349885501526
0	18550	17718.021052632222	1.990403339453
0	18557	17723.816554955583	1.289157396741
0	18575	17730.905300237739	7.421481465214
0	18589	17742.288532634983	6.536483489281
0	18592	17744.035049357424	3.656260316259
0	18595	17745.967511100108	4.742013349632
0	18605	17762.10027858877	1.571420545876
0	18620	17767.508132689881	4.945309832506
0	18625	17782.789630835349	1.829703546502
0	18630	17791.754741733582	1.586638612486
0	18635	17800.644540564023	1.665119001828
0	18645	17818.654120424542	1.751247773206
0	18650	17821.234965255348	1.848361551203
0	18667	17828.240616602703	6.434960172707
0	18670	17829.916296123593	3.598895329633
0	18675	17841.607315829884	1.229398144037
0	18685	17857.610896288527	1.457479329593
0	18690	17861.788926657731	1.543906225637
0	18695	17864.943933928812	1.637057404965
0	18700	17870.628102269506	1.794690868817
0	18705	17876.87538444244	1.347248724662
0	18717	17896.71010122985	3.330713819254
0	18720	17898.189570816759	5.113522252441
0	18732	17902.512830912435	1.490621282347
0	18742	17905.606698776895	7.112217265511
0	18750	17908.835185583422	2.742078623056
0	18757	17912.737302467092	1.899065066315
0	18760	17914.162647212907	3.139299577937
0	18765	17926.935175240397	1.42285090927
0	18770	17937.718295684076	1.685825743899
0	18775	17942.254996243603	1.632381040789
0	18780	17955.115579287899	1.636428725533
0	18787	17968.293925119034	1.93952004239
0	18792	17970.198254633165	2.110066069444
0	18795	17971.944186314038	3.414748607695
0	18807	17992.544694744731	3.028202007977
0	18815	18011.800877998571	1.230631895922
0	18820	18016.509944270766	1.776252382435
0	18830	18027.018772445058	1.769054216048
0	18835	18030.673145517284	7.164769262586
0	18847	18038.149790769143	5.205385178189
0	18850	18039.58129296161	2.645243162257
0	18870	18051.599319617484	9.19083842952
0	18875	18056.262809484834	1.608052443899
0	18880	18065.129857888342	1.718552230299
0	18885	18072.110315077814	1.399887268245
0	18890	18081.443343832014	1.209814696386
0	18895	18094.922886737625	1.384314866178
0	18900	18097.915876815276	1.77775510475
0	18905	18099.378891998191	1.388626875728
0	18910	18118.192257504935	1.249224800244
0	18915	18120.624580641083	1.70084442962
0	18930	18131.99687697005	1.263672075048
0	18935	18146.189488961064	1.555623233877
0	18940	18157.691516543638	1.343919187039
0	18947	18166.586138707564	1.9409564564
0	18950	18167.850226923988	2.715210209178
0	18957	18188.177255397799	1.704547167942
0	18965	18192.996465805901	1.366365369782
0	18975	18204.755189799913	3.197164078153
0	18980	18212.374663667164	1.237781557627
0	18985	18215.651224293313	1.670002774335
0	18995	18223.062246143285	5.760660461377
0	19000	18235.664083759422	1.827135731652
0	19024	18242.498215726529	6.42951585054
0	19029	18244.008794359815	8.078417061083
0	19055	18254.871352427372	11.932126673493
0	19060	18256.330890592353	9.161360779007
0	19072	18267.59410324187	2.865920041548
0	19075	18269.01815860399	3.782065671331
0	19080	18276.539054392459	1.234067876823
0	19097	18294.754908051814	5.473768281563
0	19102	18296.576115074667	5.891843603082
0	19105	18297.9604768931	2.715720731597
0	19110	18300.419461553475	1.287443790957
0	19115	18311.272213410148	1.83576354757
0	19120	18316.87850935153	1.614493611269
0	19130	18338.218367919617	2.981647154459
0	19137	18347.024512269637	1.239329509065
0	19142	18348.413344554892	1.882383934311
0	19155	18376.649769855735	1.71224155724
0	19185	18401.772954659176	6.397255039165
0	19192	18404.88433172418	1.357338628545
0	19200	18408.234363877533	2.285742518503
0	19234	18442.979459781814	6.877160474284
0	19237	18444.897872466277	5.716162320273
0	19265	18454.474964245144	5.909216704171
0	19270	18458.892714781592	1.920628678426
0	19280	18474.082809526748	1.403443860821
0	19285	18476.092718690732	1.268705558591
0	19290	18482.322300252511	1.982369099744
0	19304	18490.320821088697	4.078613912801
0	19307	18492.312200847971	2.102953891935
0	19310	18493.557074519205	3.339006139928
0	19315	18495.282999738809	1.531783203594
0	19320	18501.043021700144	1.706356114522
0	19335	18516.080258684946	3.796898669145
0	19342	18530.227391190039	1.884966437891
0	19355	18536.494780560688	2.97241844927
0	19360	18545.246875240247	1.684436285682
0	19367	18554.883806653739	1.336487730406
0	19372	18556.265638722711	1.412715824074
0	19380	18570.312402846903	1.695862254314
0	19390	18575.189536779338	1.738099514134
0	19407	18580.979634755502	5.02440644291
0	19410	18582.828237990501	5.449241606256
0	19415	18590.442946248715	1.494394739531
0	19420	18602.329466410638	1.545956886001
0	19435	18613.739487713447	1.824941268377
0	19440	18616.396848084482	1.821518427506
0	19452	18625.424823585451	2.602512663181
0	19460	18630.106022369887	7.99695727891
0	19465	18635.297082281763	1.35885530971
0	19472	18639.224038654037	1.484931633435
0	19480	18642.725508302962	4.793494835012
0	19485	18646.313378916803	1.231019181013
0	19490	18648.125701979722	1.625805352814
0	19495	18653.971729562577	1.46215459574
0	19500	18658.14007122768	1.690788112022
0	19505	18659.954542077063	1.800633213483
0	19510	18662.129823098604	1.526703103445
0	19517	18664.878737671475	1.227197172306
0	19525	18672.639718018539	1.966996538453
0	19530	18681.886279423575	1.406665850058
0	19537	18688.202902644111	1.604838970304
0	19545	18694.338583045802	1.53136300128
0	19552	18700.281105813443	1.779273041151
0	19565	18706.574638838273	4.731245545375
0	19575	18712.895931856361	1.908888278157
0	19580	18727.19306187385	1.254247640632
0	19585	18732.341960779644	1.864416081831
0	19590	18737.130795004468	1.360269417986
0	19595	18741.096816519869	1.683324501291
0	19600	18745.774149958408	1.701371410862
0	19612	18749.091065792165	2.181322781505
0	19622	18759.22326191191	1.617001465522
0	19625	18760.625542390462	1.584386257575
0	19630	18766.329405518764	1.66128911227
0	19635	18782.339936228207	1.754677536152
0	19654	18790.430550942525	1.467702059448
0	19657	18792.068151668973	5.638921519082
0	19660	18793.879267818808	3.468193484264
0	19670	18806.913537914482	1.625872570835
0	19685	18819.682686743019	3.380020821627
0	19690	18827.66411562976	1.577217004634
0	19697	18831.287957813687	1.460036921874
0	19702	18832.616725303329	1.432628379159
0	19707	18834.312256961971	2.307740176292
0	19710	18835.530313433989	1.36319415045
0	19739	18850.074476713111	5.133749671095
0	19742	18851.93788734561	3.782985048395
0	19745	18853.682324963046	13.53292834534
0	19755	18868.207869124828	3.55541699415
0	19760	18890.149689889656	1.269875191152
0	19765	18892.759024767151	1.834757203609
0	19775	18900.153741602372	4.258413334704
0	19780	18906.489942738937	1.724319700524
0	19790	18932.386148088221	1.820365859009
0	19802	18942.38670092537	2.680101796852
0	19805	18943.676396461343	2.72754657985
0	19810	18948.002114344786	1.983487916552
0	19815	18963.892789746742	1.566964694113
0	19834	18970.120749088464	2.063128560557
0	19847	18975.404258956661	7.890147730894
0	19850	18977.09558933684	3.936407586333
0	19865	18983.981962051361	6.773139349924
0	19875	18989.357266214754	2.848382873951
0	19889	19002.16498360852	2.721945892263
0	19892	19003.65641849464	4.667118106037
0	19895	19005.03104584994	4.08501220668
0	19920	19017.559623236457	8.870479892328
0	19925	19023.083965190105	1.94480112996
0	19930	19027.754900729581	1.681302544475
0	19940	19040.036054573188	2.322023636283
0	19945	19046.313528865384	1.961803282052
0	19970	19075.462493240466	4.742015029787
0	19981	19083.040543135612	1.621403645165
0	19986	19084.473998919113	2.865634037813
0	19989	19086.030207831024	3.566060784069
0	19992	19087.336882121845	4.621730537951
0	20000	19091.290158429185	1.924018543214
0	20005	19102.120773504488	1.76107319016
0	20010	19112.350541985903	1.545466656052
0	20020	19134.711711105513	1.426142439991
0	20025	19142.447485163649	1.423115643859
0	20035	19160.736426955045	4.538087026176
0	20042	19163.083162072693	1.466919464432
0	20052	19166.441455339287	2.497634286049
0	20060	19170.862468557911	8.18687188608
0	20065	19181.069640979354	1.828347546048
0	20070	19199.570137235359	1.387985366397
0	20075	19202.622694841178	1.849935887754
0	20092	19217.860822989177	5.740909761974
0	20105	19258.347303420275	2.256692854495
0	20115	19268.713897890068	1.424550232664
0	20132	19288.56509490434	1.73606090378
0	20135	19290.488572220056	2.633131715999
0	20150	19307.916792544951	1.499419045076
0	20164	19318.729847152499	1.938893738575
0	20167	19320.374220787329	5.006555466857
0	20172	19322.250726566804	3.759638672266
0	20180	19327.217040403007	1.693967552483
0	20190	19337.41874205102	4.284543992213
0	20195	19368.209231413691	1.750177081861
0	20204	19373.158138675814	1.879855009355
0	20207	19374.886213207257	3.351484239007
0	20210	19376.516245453072	4.565984058209
0	20215	19379.217269068798	1.47393184118
0	20225	19385.364513890906	1.990424412489
0	20237	19395.320415048225	1.537984813564
0	20240	19396.979977195075	6.339566135945
0	20262	19406.954211240686	2.467093086413
0	20269	19408.636974340729	9.668050294387
0	20272	19409.967552016727	6.456284422614
0	20275	19411.171833459712	3.154125495922
0	20303	19431.2372399785	6.321174550243
0	20306	19433.155660808496	6.783575225268
0	20309	19435.09971677795	8.355527269294
0	20321	19438.253507978506	7.854773086668
0	20328	19439.557570911236	4.237910356567
0	20333	19440.991181782298	4.148711519936
0	20336	19442.254642948732	5.212809515049
0	20346	19446.209093336612	16.197970832902
0	20351	19447.487014651522	8.285980348494
0	20356	19449.359729937687	1.889251482052
0	20361	19451.018955325931	2.52769708555
0	20369	19453.920798228345	1.87267782616
0	20380	19460.683708240879	1.312141777575
0	20387	19485.101647202116	1.728670669161
0	20390	19486.710672274609	2.870258121901
0	20395	19494.516308448515	1.690174711868
0	20402	19501.155833287908	1.756478261948
0	20405	19502.45722043868	1.755901597233
0	20415	19507.331020983729	1.503145114705
0	20420	19513.612601582368	1.983841262385
0	20435	19518.941320062502	2.424336270863
0	20445	19530.815263276598	1.468603554368
0	20450	19540.881604586276	1.545340539329
0	20460	19548.926065104458	1.952100448169
0	20465	19562.242777443985	1.869361506402
0	20482	19576.319203327723	1.880687167496
0	20487	19577.954988244116	3.479310762661
0	20495	19581.11389946937	3.899889916245
0	20500	19583.300451999438	1.463622928038
0	20507	19592.101641505848	1.732752045617
0	20515	19622.181372034412	1.208360057697
0	20530	19643.618728701614	6.215809618719
0	20542	19648.515853713145	2.868994070397
0	20547	19650.145153107186	3.514577976451
0	20550	19651.829943674681	6.492035645619
0	20560	19665.027034852084	1.306332810596
0	20565	19671.507070885127	1.676223512739
0	20570	19690.582923335929	1.382275112905
0	20575	19696.632048930285	1.211447575502
0	20585	19700.610842054206	3.231284446302
0	20590	19712.361938829001	1.511516168527
0	20610	19736.744233928549	1.916270884499
0	20615	19738.411936646428	12.720067184668
0	20624	19742.085661159045	1.898312342726
0	20627	19743.619847176745	14.489916953314
0	20640	19750.127119899904	3.231466046883
0	20647	19772.171026245028	1.68326443769
0	20660	19796.147432718855	1.685648530722
0	20670	19805.276977851645	4.56687993407
0	20677	19828.407679320861	1.741757486202
0	20680	19829.624644089293	2.349437229656
0	20685	19837.142824798548	1.535299124569
0	20695	19847.906262020435	1.895828911662
0	20700	19851.203451582935	1.331693670154
0	20705	19858.573934434794	1.532830053195
0	20712	19870.476026329613	1.440999867208
0	20715	19872.308053646452	2.264467477006
0	20720	19876.578781778272	1.87569671534
0	20725	19878.92052279397	1.585826087184
0	20730	19900.399280957819	1.797804415226
0	20735	19917.130061976395	1.733987004682
0	20740	19922.984786355817	1.248456424661
0	20752	19930.485954551009	2.497030954279
0	20760	19934.180411546182	6.26653083664
0	20777	19949.96305788389	2.063999751584
0	20780	19951.568604829223	3.005077137967
0	20802	19964.814771025521	1.84505122304
0	20812	19968.228490311546	2.491467891399
0	20824	19971.723363637073	2.840305498423
0	20827	19973.62121100322	7.255554178744
0	20830	19975.535240687697	4.416492854962
0	20835	19979.747994023526	1.842223446257
0	20840	19986.27008653634	1.744654121809
0	20857	20012.606506156568	3.197341648679
0	20870	20017.495290585812	3.03132755254
0	20875	20023.917870604826	1.257580845617
0	20894	20031.693350333432	2.367120176323
0	20909	20036.662963361936	6.867251917525
0	20914	20038.331401611017	9.795521343499
0	20917	20040.165944917211	5.011060480868
0	20920	20041.988427040809	5.162870922636
0	20935	20047.781504514365	3.371660617356
0	20945	20062.198408252019	3.235921186445
0	20950	20069.538662721477	1.216333600134
0	20955	20074.200209513567	1.333238742687
0	20965	20078.723729743593	1.336517334729
0	20970	20083.816341935926	1.939405508898
0	20975	20099.726780197247	1.266018244624
0	20987	20123.799613692971	3.129616046517
0	20995	20129.598182639713	1.743359817564
0	21000	20133.931893499878	1.843164020218
0	21007	20136.918377526517	1.504528182186
0	21027	20148.503125227317	1.255474820435
0	21032	20150.307305546738	1.813594863913
0	21035	20152.13411933098	2.205272418576
0	21045	20163.663321500153	8.3778687329
0	21052	20171.593946664645	1.622697355226
0	21057	20173.460476536727	1.988432494012
0	21062	20174.931161492182	2.793336992082
0	21065	20176.633254481344	2.076704398698
0	21080	20187.567697053735	1.982783640362
0	21100	20203.267630967887	3.733835836771
0	21107	20224.0087542563	1.557148144953
0	21110	20225.870451578803	2.501976489661
0	21120	20235.020202076348	6.987510458093
0	21152	20270.238250644958	4.843655390665
0	21155	20272.039414051814	5.556874994132
0	21160	20276.123213763711	1.922444079444
0	21167	20282.59171110355	1.947540211678
0	21170	20284.433435171476	2.921510346361
0	21175	20286.276305838504	1.585063067637
0	21182	20295.117778631652	1.233064109273
0	21197	20300.002855869735	5.228344347568
0	21200	20301.558505207839	3.937660333045
0	21205	20315.586573102692	1.718812702782
0	21210	20317.537276493712	1.683889886737
0	21215	20321.80012296569	1.6084404286
0	21220	20325.508650832102	1.433860300295
0	21225	20332.909530329842	1.955990533158
0	21230	20343.113925901641	1.652233814448
0	21235	20346.319025715005	1.730691836588
0	21240	20353.235868129257	1.651206696033
0	21250	20360.296186034754	4.238622716388
0	21267	20378.525787651173	1.991207013961
0	21272	20379.900274670131	4.768279824779
0	21275	20381.28676644732	2.51242673249
0	21287	20388.039657831967	2.534836056478
0	21295	20397.807675019509	1.802569537796
0	21300	20408.517848459659	1.375391004048
0	21305	20412.609243469117	1.449692254886
0	21315	20424.624159672086	2.170505250366
0	21324	20428.62026005841	1.778867880441
0	21327	20429.878313976593	2.783602181611
0	21361	20442.76043152725	2.311261824714
0	21380	20450.683939956167	15.260238006562
0	21387	20466.632221922168	1.306943104975
0	21397	20470.419269979799	4.264626994301
0	21402	20472.327660074698	2.319283361798
0	21405	20474.169417933429	3.124857021286
0	21410	20482.882800908014	1.501071034372
0	21420	20498.545095487322	1.941736955568
0	21425	20504.152550424157	1.885777159408
0	21437	20513.592240998769	1.502701474184
0	21440	20514.852492042692	4.326472829468
0	21445	20524.450605778203	1.554177202657
0	21452	20531.815694961057	1.662138639204
0	21455	20533.172846814723	2.6119812246
0	21460	20546.481568136165	1.303099158406
0	21470	20555.296996515479	1.685371835716
0	21485	20565.767095635168	5.335780815073
0	21490	20571.09263491953	1.620809846185
0	21495	20572.525531284882	1.395938052051
0	21500	20579.343910189412	1.220219327509
0	21510	20584.185544983107	2.888085530013
0	21520	20593.032035904556	1.656101513281
0	21525	20596.889389686	1.827406692877
0	21530	20604.06302874153	1.695303839445
0	21535	20608.977527847561	1.328805973195
0	21540	20614.154781785825	1.264039699547
0	21555	20621.968257604455	5.347163432721
0	21562	20624.098404352855	1.746962893009
0	21565	20625.398007992026	1.805659020028
0	21570	20628.181119838712	1.413549019396
0	21575	20640.615525468743	1.512953126617
0	21585	20657.382326259796	1.699661623128
0	21590	20661.962323117082	1.663626505621
0	21595	20669.847802049988	1.307111464627
0	21602	20686.592460654755	1.746904297173
0	21610	20705.707696047735	1.21017180346
0	21620	20733.677030373489	4.242251696843
0	21625	20739.773853209111	1.200196894817
0	21630	20743.021046609651	1.820604102314
0	21635	20747.920461808466	1.367528912798
0	21650	20763.08551471889	4.029513330013
0	21655	20768.89995903877	1.710948801972
0	21660	20772.223618487229	1.819558039866
0	21670	20797.194387884765	1.554782910645
0	21680	20810.911323829843	1.614785299264
0	21687	20819.748984404927	1.780220519938
0	21690	20821.417750031775	1.83711198049
0	21695	20830.533392547192	1.573506234214
0	21710	20848.073258802478	1.999779720604
0	21715	20858.973730293635	1.272283088416
0	21731	20862.842743434119	2.275937998163
0	21734	20864.068485894534	2.205299071573
0	21755	20877.971546528453	6.367106248065
0	21764	20880.630493606136	1.937795439549
0	21767	20881.859284055301	1.322943513413
0	21775	20884.290636669353	1.946470853091
0	21790	20892.143403423956	6.028864822323
0	21795	20893.966587479517	1.349461606704
0	21800	20900.854524668824	1.251407837495
0	21805	20903.323265501744	1.304773589969
0	21810	20909.018972866421	1.805991470255
0	21815	20933.110315125816	1.484778172895
0	21820	20936.447541007805	1.378101539426
0	21825	20939.682388469804	1.789949067309
0	21835	20949.661333437579	9.117563670542
0	21852	20971.761852123636	2.529144073899
0	21862	20975.26512239243	1.635898253135
0	21865	20977.010366192861	2.968029101389
0	21870	20984.386400502241	1.998550217226
0	21882	20998.851535441161	3.370144587568
0	21885	21000.714872905605	4.999658638373
0	21897	21004.515069851949	2.058986626097
0	21900	21006.014966880827	3.27700148875
0	21905	21012.848827805941	1.462079618126
0	21917	21023.073240552368	1.387982884794
0	21932	21036.472331345976	1.715583882853
0	21935	21037.885543935337	1.917374948596
0	21942	21041.05130830079	1.321108859591
0	21950	21044.3943956076	4.550268334055
0	21962	21050.272415001031	3.044047224363
0	21965	21051.477878657628	1.291551079404
0	21970	21056.841416873337	1.868353077024
0	21975	21062.69179144057	1.767756409943
0	21980	21067.00404248655	1.990755316988
0	21985	21080.417593005132	1.287511959299
0	21997	21094.397834414366	1.61619888888
0	22000	21096.175356476317	1.918300290985
0	22007	21101.570033598687	1.745791178197
0	22010	21103.210129900831	2.50159593309
0	22022	21112.081953997832	2.076460610471
0	22025	21113.583251645897	3.078684790962
0	22030	21116.296248197504	6.888590917018
0	22035	21135.338430104332	1.607496500202
0	22040	21138.775210889009	1.617887666635
0	22045	21142.583648115613	1.458477487788
0	22052	21166.678896123973	1.694254277833
0	22057	21168.253741632459	2.843468622068
0	22067	21171.858082498667	1.944927561164
0	22079	21174.62268974824	2.727192221105
0	22082	21175.830016283562	8.954530904423
0	22085	21177.086966397857	3.673361977054
0	22090	21193.090506952981	1.315041039512
0	22095	21196.715540149	1.528348506428
0	22100	21201.653095264	1.939626500197
0	22107	21227.230492217762	1.477575267665
0	22115	21230.362448754805	3.528698200652
0	22120	21249.345670789037	1.644031094573
0	22130	21269.410878430164	1.636019651033
0	22137	21274.280216926504	1.256908748858
0	22140	21275.908901427854	2.174155949951
0	22160	21284.69214472505	1.519482324645
0	22167	21294.309910771576	1.960332794115
0	22170	21296.251122709689	3.863719853577
0	22180	21307.514307888796	1.521418559738
0	22187	21313.86206324605	1.75949930381
0	22190	21315.419602563993	2.035499597349
0	22195	21326.212544502508	1.651849400438
0	22210	21335.578590268155	2.334678928983
0	22221	21339.205971055672	1.444129677676
0	22229	21342.40582856425	3.949428750249
0	22232	21344.328449619197	5.420637215671
0	22235	21345.541539046735	7.332933259156
0	22250	21359.421658816165	7.937248579211
0	22265	21383.675579127488	1.563501722552
0	22275	21421.697124814082	1.550121700391
0	22280	21423.413599660562	1.382155534998
0	22292	21434.564469175604	1.668079407327
0	22295	21436.250846979585	2.202209411896
0	22300	21452.967453968192	1.483500232548
0	22310	21462.219811785975	1.537194518
0	22315	21475.6850549112	1.939752620831
0	22325	21480.01257279786	3.426128941593
0	22330	21483.72685724675	1.385405956209
0	22337	21495.229770838344	1.781627872027
0	22340	21497.048509058417	2.145398086493
0	22347	21499.048566174492	1.4743852254
0	22350	21500.357428504884	1.407501138021
0	22355	21514.406079994714	1.669862832874
0	22374	21527.246957997148	3.042212184703
0	22382	21530.25780220135	2.851298848796
0	22390	21533.466036976044	13.591229810598
0	22395	21535.697163060661	1.702775795013
0	22405	21539.989099997189	3.849048949214
0	22410	21546.281802030194	1.87425524313
0	22425	21569.150501202299	1.833180477284
0	22430	21573.547053581082	1.500166445784
0	22435	21575.841297543873	1.495001884736
0	22440	21610.962898715273	1.211782637052
0	22445	21629.307064189367	1.316870487295
0	22450	21638.461740917116	1.874987972341
0	22455	21641.271425268561	1.52005717326
0	22467	21667.331869267272	4.605181278701
0	22477	21673.761666619187	7.304375492317
0	22496	21682.334342546911	2.231307814894
0	22499	21683.603409471885	2.616714304943
0	22502	21685.116648939774	3.008145035201
0	22510	21689.006384621818	1.823123895749
0	22515	21694.560210984397	1.749293214642
0	22525	21702.758450145994	1.330403465219
0	22532	21706.204008266109	6.386397872068
0	22542	21710.612783799317	1.333159933798
0	22552	21714.172127922241	9.007153504021
0	22555	21715.762942342263	2.365614929997
0	22565	21722.478898387931	4.605470887805
0	22575	21736.510322652137	5.197519628493
0	22580	21738.729834190457	1.297609434277
0	22587	21741.021695193821	1.791369299963
0	22592	21742.915090690912	3.282666138804
0	22597	21744.128267011219	2.32734177589
0	22600	21745.787902642773	1.76106411391
0	22612	21757.94711496577	3.295661018502
0	22630	21764.009539931289	6.371705954342
0	22637	21766.445402529117	1.982084575668
0	22640	21767.707125259031	2.708872102752
0	22645	21772.984620497129	1.790198406577
0	22655	21789.829539969289	3.722821479569
0	22660	21792.53986693549	1.864324571937
0	22665	21814.763070375878	1.542966896854
0	22672	21842.468229018972	1.308446504548
0	22682	21845.809398178646	3.143328550598
0	22687	21847.118636284845	5.831031414564
0	22690	21848.382341517584	2.462318361143
0	22695	21856.138356900421	1.363250367343
0	22700	21858.434361468801	1.913128759339
0	22705	21860.525296601684	1.904670287669
0	22715	21882.413849310702	1.685992664658
0	22720	21894.585567913483	1.815732245333
0	22725	21910.084647149949	1.42728942465
0	22730	21931.044960131898	1.457165200077
0	22735	21932.781108261118	1.321515456587
0	22740	21940.917424036391	1.79628123939
0	22745	21955.133643933316	1.742882254906
0	22750	21959.000822803728	1.984439412318
0	22755	21975.926492885148	1.996484796703
0	22762	21979.870725936964	1.766652464122
0	22767	21981.782686337232	1.926110329459
0	22770	21983.006347763687	1.901428778951
0	22775	21987.367967717056	1.262712498941
0	22780	21990.599612410399	1.72227229178
0	22785	22001.977708553147	1.645582357422
0	22790	22017.922233449049	1.857792383246
0	22797	22019.613988216713	1.394860223122
0	22800	22021.119542368248	1.915748284551
0	22805	22029.619797450609	1.261769221723
0	22810	22031.025155146874	1.380748142861
0	22817	22035.998857892644	1.225357485563
0	22825	22039.999287374939	5.136569789061
0	22840	22059.211235506976	1.60407668259
0	22847	22075.686527340566	1.705608130246
0	22865	22086.920720997685	1.473399714567
0	22880	22100.302421217381	1.260945132375
0	22892	22107.540824697692	3.744694978713
0	22900	22110.994622324948	3.565094927422
0	22917	22122.018583328752	1.925709286705
0	22920	22123.508729817448	10.00180495317
0	22925	22132.050563507895	1.750789686106
0	22935	22152.954493055551	1.258725709282
0	22940	22154.909026439479	1.385598926432
0	22952	22168.506423232768	2.96360693815
0	22955	22170.091156788048	4.081361704478
0	22962	22176.192811895133	1.548882928304
0	22975	22184.797485425072	2.812617912963
0	22985	22191.585340205572	2.654795063557
0	22990	22195.147574401958	1.573885317147
0	22995	22198.312399571105	1.85946229063
0	23002	22206.492424124329	1.696660313755
0	23005	22207.84092247825	2.985095544683
0	23010	22210.567817896917	1.413527655229
0	23030	22238.62039914511	1.685912237689
0	23035	22245.70638429502	1.932289357297
0	23045	22249.391491050846	1.912422790192
0	23052	22251.497045020381	1.251485291868
0	23060	22256.111416470822	10.12266856495
0	23070	22262.184498659508	2.980415756815
0	23075	22270.874901925939	1.698964234442
0	23082	22275.278117293165	1.35980057288
0	23087	22276.52816384253	2.487085848946
0	23090	22277.780723698669	2.184196483514
0	23095	22309.505031004641	1.425376736932
0	23107	22324.277964297415	1.960380884819
0	23110	22326.179152432748	3.847310354721
0	23120	22353.199975402726	2.79862456233
0	23125	22364.221030555032	1.87173233144
0	23130	22379.111664870768	1.44348575063
0	23135	22382.988872155038	1.466970213316
0	23142	22391.047608232792	1.873599689081
0	23145	22392.41672603387	2.879648325968
0	23150	22396.799367705232	1.944270680286
0	23155	22405.903257926837	1.527488836274
0	23160	22409.459836127145	1.457615649514
0	23167	22415.979561865639	1.333927592263
0	23170	22417.550235387992	1.759070662372
0	23175	22419.140753675012	1.464233137481
0	23187	22428.358089682643	2.973071348446
0	23190	22429.664811704118	2.275535566389
0	23195	22434.946309156451	1.471393736638
0	23207	22451.624001562616	2.28707963017
0	23210	22453.275409318341	5.581146110036
0	23215	22459.074301897746	1.681052668206
0	23220	22469.298152073095	1.937524743937
0	23237	22494.269485420035	1.926015393063
0	23240	22496.217997784773	2.80939946434
0	23245	22511.038257918364	1.234447973035
0	23250	22516.742567036086	1.851625211164
0	23264	22528.363460189071	3.612752988818
0	23267	22529.575281879459	2.403266495406
0	23270	22530.84257197563	3.663598185324
0	23275	22536.519138353898	1.648318622448
0	23285	22547.991254894498	3.812949473491
0	23297	22561.048294214107	2.910031143992
0	23305	22564.596191362568	3.74084506685
0	23312	22578.460561778264	1.768546822667
0	23315	22579.668673848787	1.914825229394
0	23320	22589.547658378713	1.725116167217
0	23325	22593.224879428354	1.476189796627
0	23330	22594.749559281258	1.356202610023
0	23335	22612.80045873668	1.261532446742
0	23340	22620.044877609834	1.519276253507
0	23347	22630.94423855323	1.208422958478
0	23350	22632.253709146787	1.349335234695
0	23357	22634.129983915777	1.572169912606
0	23376	22638.95382513629	5.887335464349
0	23379	22640.422774396108	2.822029640249
0	23382	22641.892597404511	7.05312172751
0	23390	22649.757010975019	1.461408894695
0	23395	22655.11698244266	1.799208552018
0	23400	22663.278531035553	1.233523549326
0	23410	22668.575337452502	2.782923923512
0	23417	22674.217124834299	1.498878763244
0	23425	22677.996519877375	4.840032381204
0	23437	22694.135670601296	1.778165823407
0	23447	22697.571689403149	3.280665423776
0	23450	22699.427209862786	9.596555089735
0	23467	22705.144003223447	1.886476947856
0	23485	22715.753314543709	3.202387221888
0	23490	22718.692570603543	1.329939873703
0	23505	22727.43392006255	5.46585249193
0	23515	22732.947404450559	3.188923243368
0	23520	22735.44435125474	1.676586363465
0	23529	22740.464512864119	1.896793681756
0	23532	22741.810460689283	3.092739840201
0	23540	22751.515618070298	1.303447307646
0	23545	22756.040235324755	1.818462213129
0	23550	22759.998789640539	1.601449206285
0	23564	22767.323273284764	1.460707529075
0	23569	22769.012822894038	2.657296224293
0	23572	22770.504364932359	9.316750621238
0	23575	22771.867126276933	3.247590722042
0	23580	22786.469277842479	1.920413747057
0	23585	22803.521448189654	1.664462091401
0	23611	22820.761448572557	2.16460918904
0	23614	22822.538752262648	2.828152746902
0	23619	22824.214350683596	4.402339182185
0	23624	22825.916943277586	8.540891247429
0	23627	22827.167531887796	3.145734005518
0	23632	22828.544870977644	3.917925650595
0	23645	22837.20067925042	6.59207439549
0	23650	22840.65020113371	1.812342526764
0	23657	22847.384798442889	1.419403647259
0	23660	22848.682352336254	2.150970559643
0	23665	22855.279818996369	1.753515827842
0	23682	22866.844053274989	8.455608080771
0	23685	22868.387052227408	2.506418889425
0	23690	22870.360616841707	1.758949382976
0	23697	22876.001078499828	1.550837069005
0	23702	22877.556858942818	3.00335446603
0	23707	22879.388083645303	2.271946216522
0	23717	22883.089422091816	2.754499976053
0	23720	22885.089343749334	2.798434497982
0	23730	22905.211759375503	1.790264787339
0	23735	22907.084919575195	1.433565079048
0	23740	22921.50778284	1.879324627854
0	23745	22935.62598424877	1.694473520108
0	23750	22953.455097604008	1.451323590428
0	23755	22957.746507729728	1.483523087017
0	23765	22972.083172962164	1.649666234263
0	23772	22976.366144415566	7.31810349274
0	23780	22982.510712024826	1.333654293045
0	23785	22989.238440329002	1.295328490436
0	23790	22997.244398190392	1.417278984375
0	23800	23001.452775297725	1.512361281086
0	23822	23031.593991307738	1.724257143214
0	23830	23036.574921970606	6.575489775085
0	23837	23042.785508133698	1.857109027915
0	23840	23044.085026657995	2.27234692551
0	23845	23063.032845981326	1.564206238464
0	23850	23067.688119014836	1.492413798533
0	23857	23073.57620995311	1.377178273164
0	23862	23074.938559806216	1.961486307489
0	23867	23076.481912978235	2.772499625962
0	23870	23078.368948062565	2.381428466916
0	23875	23085.645011631955	1.29780978933
0	23885	23098.524774346284	1.25492866803
0	23890	23105.469636654775	1.571775311232
0	23897	23110.716342591233	1.76770169083
0	23900	23112.292290292791	2.931549087404
0	23905	23123.233912199458	1.283571387827
0	23910	23132.593492338528	1.674982354417
0	23922	23139.16219916322	1.330753543228
0	23935	23173.931522651693	1.369919884205
0	23942	23195.190856993409	1.884067667648
0	23945	23196.690169643821	2.697497478075
0	23960	23206.772329528916	3.607523373709
0	23967	23211.332007802075	1.440322979167
0	23977	23216.757333976345	5.766486059109
0	23982	23218.070231435018	1.344698474093
0	23985	23219.973454640935	2.549953453485
0	23990	23228.105201987415	1.477160968632
0	24000	23237.86886876663	3.755296424158
0	24010	23256.527311654261	1.88491257485
0	24017	23264.372171592643	1.705027902126
0	24020	23265.786866274593	2.880939083778
0	24042	23275.861543041529	2.064945729457
0	24050	23279.815597576297	8.863582053245
0	24055	23284.117629344909	1.517313745245
0	24060	23322.298601992588	1.78949211929
0	24070	23328.161256121124	1.508352992125
0	24077	23339.60532092235	1.754950061813
0	24087	23346.421657618172	1.407434593886
0	24090	23347.938188984841	2.086129317799
0	24100	23359.945816300406	3.969682651653
0	24110	23374.867516013715	6.481995534834
0	24120	23385.628027260643	4.003561673504
0	24127	23387.329457988073	1.219251229987
0	24137	23390.619396624011	2.686482761539
0	24145	23398.570781729837	1.465322291665
0	24150	23411.232435831275	1.960579920374
0	24157	23425.455133255505	1.958696876094
0	24160	23427.123016337984	3.267089141368
0	24175	23438.210153873193	5.260050339996
0	24187	23442.137232630617	8.227574031928
0	24192	23443.65990439999	1.886102843236
0	24200	23447.590675216435	4.616103471074
0	24215	23465.778114775213	1.60341679249
0	24224	23481.712280434954	1.604796972498
0	24234	23484.45646212327	3.184139962981
0	24239	23485.813739077027	3.889542895643
0	24242	23487.068559564489	6.710092153562
0	24245	23488.521153576325	2.793405489271
0	24250	23492.419201843187	1.838806424476
0	24255	23496.574677898998	1.964424587786
0	24260	23499.149820650481	1.520421781577
0	24265	23513.637428029457	1.243135399744
0	24270	23518.153380736205	1.555839736015
0	24285	23536.043886321393	3.911130775661
0	24290	23551.910523394437	1.950337900966
0	24295	23557.336965656685	1.887592754327
0	24300	23567.024893638762	1.206598394178
0	24307	23573.944994134454	1.482575804554
0	24314	23575.497157271763	1.817149394358
0	24317	23577.350725888831	2.866688062147
0	24320	23578.702599847128	3.254591989934
0	24335	23613.18626489988	5.227609242498
0	24345	23625.239660589698	3.047113464746
0	24350	23627.8420232912	6.210020464119
0	24357	23635.911333633674	1.771743040346
0	24362	23637.821080034127	2.398139599775
0	24370	23643.90221324468	1.342589660734
0	24375	23654.749897572202	1.622103240713
0	24380	23658.441073566846	1.267019483075
0	24392	23662.5295046951	2.675552246739
0	24395	23664.209673018505	5.294794000313
0	24402	23667.751256127641	1.910678611323
0	24405	23669.680545828104	3.134515205312
0	24412	23675.34524882108	1.378736437857
0	24420	23679.376704107731	1.618117118254
0	24425	23692.734911982299	1.873876640573
0	24430	23697.861844140257	1.928929223865
0	24445	23714.751438448921	1.352110417373
0	24455	23718.272780517981	11.496799831125
0	24462	23722.538188032218	1.667837564647
0	24465	23724.43218171426	3.015757221323
0	24470	23727.113405285017	1.20961326398
0	24475	23752.754008088344	1.363440377265
0	24480	23757.762297498852	1.44276646506
0	24487	23760.312384096177	1.268769252487
0	24494	23762.306880474666	2.723939990378
0	24497	23764.22267714964	3.676821412577
0	24502	23766.024250877665	4.73258190182
0	24505	23767.466471835801	3.032210607181
0	24510	23782.194282857987	1.772217819281
0	24520	23793.709285739418	3.985748356676
0	24547	23816.512138431145	3.093124652932
0	24550	23817.946454310602	4.642609627359
0	24557	23826.63509222134	1.484344879538
0	24560	23828.081642297795	2.475620388117
0	24575	23855.987606900345	1.907920815609
0	24580	23873.591006618615	1.985571186431
0	24585	23876.630902233568	1.2572403403
0	24595	23885.75047707892	3.494476004287
0	24602	23893.319452587713	1.959917211533
0	24610	23898.231375174368	5.850704082629
0	24615	23900.089654115019	1.513715794683
0	24632	23930.96747892085	1.939704106189
0	24635	23932.321644248772	1.570148568263
0	24640	23944.493315994079	1.712970206328
0	24645	23949.227008562035	1.621470126696
0	24652	23976.766638183881	1.324622171186
0	24657	23978.528381871719	1.875712775125
0	24660	23980.328023378838	2.448395340412
0	24670	24000.527946590435	3.301863962058
0	24675	24011.945530386671	1.807398191094
0	24692	24025.315989812144	6.750615280499
0	24697	24026.954606233404	2.008034560125
0	24700	24028.410839866341	2.603377576599
0	24705	24032.050460298898	1.924820075184
0	24710	24037.269724182867	1.886952027492
0	24715	24054.491757104163	1.243674747646
0	24725	24058.21015544463	1.336768799834
0	24730	24062.095470054596	1.592696088366
0	24735	24066.201303089998	1.238649504818
0	24742	24071.115343292429	1.619868050143
0	24745	24072.699318827874	2.447677992792
0	24757	24077.769222819993	1.597212482989
0	24769	24081.64902615345	6.672837666634
0	24774	24083.555385495004	2.380583643377
0	24779	24085.393377455723	7.752140845298
0	24782	24086.657245551263	4.334758999286
0	24785	24088.534655440998	3.350441303434
0	24790	24091.6402327544	1.515601124801
0	24795	24103.004207066555	1.828557473607
0	24800	24105.681915624141	1.74425548818
0	24815	24114.857204075108	4.901184970513
0	24825	24121.136977397762	4.737689692595
0	24830	24122.936884474291	1.327509337105
0	24835	24125.550011308585	1.882930352353
0	24840	24132.995564858069	1.877231169678
0	24855	24149.89148672954	1.865309017338
0	24860	24154.753205044123	1.288143164665
0	24875	24177.848026738161	1.447055670246
0	24880	24188.113176105168	1.781818811223
0	24885	24189.441910408513	1.272714282572
0	24890	24192.40093753941	1.260689377412
0	24895	24195.725374140898	1.811627600156
0	24900	24203.648776720886	1.680018866993
0	24909	24208.314922072593	1.826084322855
0	24922	24213.500379350263	6.421512084262
0	24935	24217.596231436786	2.407179371734
0	24957	24236.093350480501	1.423104902213
0	24962	24237.814642162625	2.350716981567
0	24967	24239.622621141751	6.535393517644
[...]
6	27710	26769.353378184197	1.988892430626
6	27730	26785.922420869146	1.805226989649
6	27785	26833.954842743154	1.650331867673
6	27802	26851.633910273743	1.854425317422
6	27822	26860.431364291606	1.718228079565
6	27872	26890.783982809519	1.762398185953
6	27902	26920.251191551492	1.87329100091
6	27952	26964.957992518857	1.585748114623
6	27997	27030.243489062056	4.322049116477
6	28035	27055.411535676547	3.255077885691
6	28040	27057.600245161702	4.887140842151
6	28122	27197.921611572717	1.424382208288
6	28127	27199.252022743326	1.330411170609
6	28242	27311.376070537848	1.843728679419
6	28260	27321.683327067031	1.415074000135
6	28280	27336.458168601606	1.694083230011
6	28360	27400.513179089094	1.599674985372
6	28365	27411.504690748635	1.243886468746
6	28397	27441.509330286244	1.898387319781
6	28457	27515.596883275934	1.241469192691
6	28490	27563.573918849748	1.707552066073
6	28500	27605.84508890933	1.474185543135
6	28550	27693.345264699041	1.342481325567
6	28642	27803.579166302983	1.427555701695
6	28649	27805.163411453892	4.507187406225
6	28655	27807.95008602139	1.539360021427
6	28740	27866.607267905509	1.573806642555
6	28745	27878.467992649269	1.316582825407
6	28775	27909.583309294688	1.552807920799
6	28785	27941.67794287877	1.704064568318
6	28812	27957.054031211701	1.994632763416
6	28815	27958.502455280539	1.448424068838
6	28822	27960.1531731336	1.38586001955
6	28834	27981.689434574767	1.32348230686
6	28845	27987.040058054811	1.919043355621
6	28860	28000.888521713848	5.785396277434
6	28887	28022.57247962346	1.988713605143
6	28947	28061.496527930164	1.942809872143
6	28955	28084.48533357806	1.933012086712
6	28980	28099.224380705959	5.117496816781
6	29010	28132.146731859628	4.388117988733
6	29015	28136.028607643544	1.817817547172
6	29067	28183.640878501658	1.635836291499
6	29072	28185.494411190536	1.853532688878
6	29075	28187.163407178532	1.668995987996
6	29087	28211.127418878131	1.832669180445
6	29122	28252.457618499491	5.760077410693
6	29135	28270.083396730105	1.6178039046
6	29180	28304.205313370341	1.375145294145
6	29195	28315.273746061963	5.706877915194
6	29275	28402.977382169554	1.459100035392
6	29290	28417.916259593197	1.932368477806
6	29307	28427.524596737793	7.487670975154
6	29327	28472.597719700704	1.573839417659
6	29375	28530.4062437592	1.458389252238
6	29385	28535.19638617978	4.132496335599
6	29400	28560.554576998604	1.354697208293
6	29420	28600.108769891209	1.3651252212
6	29425	28602.785519493754	1.395722577907
6	29492	28685.854177104608	5.06125380993
6	29495	28687.078550739326	1.224373634718
6	29569	28714.700633689333	1.79320133999
6	29582	28719.986428117511	1.804574303702
6	29602	28747.081653269609	3.812016618827
6	29640	28791.545655129499	1.546239230596
6	29650	28805.831723661805	4.163407147801
6	29692	28857.821087531635	1.889082511142
6	29697	28859.665987631382	7.538694473605
6	29730	28884.973947820025	1.940518579632
6	29735	28907.062948235727	1.671490794607
6	29795	28980.522970942287	1.237271625549
6	29850	29020.905299425156	1.844124312699
6	29855	29035.227849041821	1.397359503619
6	29930	29130.647735715269	1.776488676295
6	29986	29178.725518662983	1.900502756052
6	29992	29181.805273871996	1.614468705095
6	29995	29183.107546808139	1.302272936143
6	30075	29251.468920344895	1.547821323201
6	30080	29257.430473169203	1.71247228682
6	30105	29272.490046382921	1.437295293994
6	30132	29304.623460716265	1.545844105445
6	30205	29408.119281950604	1.460292506404
6	30210	29446.095547471191	1.772321278043
6	30279	29492.994067311165	1.781201119162
6	30310	29518.257619666534	1.413400768489
6	30367	29575.133934997242	3.895801777976
6	30430	29636.887275502203	1.83109857589
6	30439	29641.167773086467	1.777481883392
6	30455	29670.424000250908	1.384175226092
6	30520	29759.856316314074	1.526578176767
6	30535	29766.512932193339	1.479197626002
6	30540	29773.513197928117	1.781923855655
6	30550	29795.111162292624	1.388616664149
6	30565	29821.518092956527	1.511558079906
6	30645	29867.80730710129	3.78571492342
6	30672	29882.650633943282	1.965443858691
6	30697	29936.468549041669	1.410173942707
6	30745	29986.117961032978	1.725191636011
7	10740	10077.582861250293	1
7	10741	10078.283016243797	0
7	10945	10311.675738161205	1
7	10946	10312.667114119492	0
7	10950	10313.697985584774	1
7	10956	10315.631660830862	0
7	10960	10316.030931580054	1
7	10961	10316.908044772855	0
7	10990	10335.40887776242	1
7	10991	10336.158789218998	0
7	10995	10336.447923013724	1
7	10996	10337.360565410404	0
7	11075	10389.535321623556	1
7	11076	10390.37946848399	0
7	11135	10444.776910852499	1
7	11141	10447.292227354835	0
7	11191	10491.916799465844	1
7	11201	10496.363998546546	0
7	11395	10725.823618962733	1
7	11396	10725.942012836417	0
7	11635	11011.70577093091	1
7	11636	11012.310853811672	0
7	11645	11030.060835130107	1
7	11646	11030.348996455128	0
7	11660	11040.226452082866	1
7	11661	11041.413910590354	0
7	11815	11150.529619033678	1
7	11816	11151.483415815895	0
7	11905	11226.455055039574	1
7	11906	11226.495026582328	0
7	11975	11295.289611405659	1
7	11976	11297.025931563541	0
7	12017	11337.74627029415	1
7	12019	11338.531672435048	2
7	12023	11340.514312603997	1
7	12026	11342.000078360291	0
7	12040	11347.806700588602	1
7	12041	11349.069260283148	0
7	12047	11350.562650271919	1
7	12051	11352.038167434519	0
7	12080	11388.670088437534	1
7	12081	11388.803921524692	0
7	12090	11390.954603945548	1
7	12091	11392.068217217993	0
7	12140	11462.641593113788	1
7	12141	11463.389757564328	0
7	12152	11466.280317986808	1
7	12156	11469.058759186467	0
7	12222	11512.832664042256	1
7	12236	11519.327582953671	0
7	12265	11563.083717263967	1
7	12266	11564.665593468998	0
7	12345	11621.447899200937	1
7	12346	11621.865069228169	0
7	12775	12037.34115295524	1
7	12776	12039.149835929698	0
7	12885	12105.866079744529	1
7	12886	12106.41792899656	0
7	12895	12109.441159887687	1
7	12896	12110.048119567399	0
7	12945	12135.32399076863	1
7	12946	12135.772643825876	0
7	13015	12223.005057081076	1
7	13016	12223.575318593117	0
7	13035	12234.712993281229	1
7	13036	12235.614556224068	0
7	13160	12419.363399888274	1
7	13171	12423.855041058118	0
7	13300	12516.18883616933	1
7	13301	12516.273845065413	0
7	13310	12519.536453799032	1
7	13311	12519.991164226946	0
7	13520	12738.715666276741	1
7	13522	12739.48092520457	2
7	13523	12739.991910882064	1
7	13526	12741.823061919168	0
7	13670	12876.466614719168	1
7	13671	12878.426449825105	0
7	13890	13137.106252377142	1
7	13891	13138.563865960027	0
7	13970	13220.294855330011	1
7	13971	13221.461492466257	0
7	14007	13263.555479259227	1
7	14011	13266.12813130221	0
7	14080	13354.314558307017	1
7	14081	13355.764737128812	0
7	14137	13391.406836920018	1
7	14151	13396.843575499547	0
7	14245	13557.941185324362	1
7	14246	13559.143897645122	0
7	14425	13786.848828580929	1
7	14426	13787.24102227054	0
7	14700	14073.853913608943	1
7	14711	14077.437421058304	0
7	14760	14094.545025532665	1
7	14761	14095.877270690806	0
7	14770	14099.019662593093	1
7	14771	14099.320092843182	0
7	14860	14166.493764080059	1
7	14861	14167.717623817823	0
7	15085	14425.613106044504	1
7	15086	14426.034233778847	0
7	15205	14520.546013479049	1
7	15206	14521.117373261074	0
7	15285	14612.681420725324	1
7	15286	14612.990112092164	0
7	15375	14691.50298259871	1
7	15386	14695.94724356235	0
7	15397	14699.041876997491	1
7	15401	14702.235619799175	0
7	15407	14703.274359046763	1
7	15411	14706.025439164729	0
7	15420	14711.463589533036	1
7	15421	14712.951467500805	0
7	15470	14764.788473199164	1
7	15471	14765.957021223539	0
7	15535	14906.729194880191	1
7	15536	14907.088946012062	0
7	15555	14925.420191911933	1
7	15556	14926.365070229572	0
7	15777	15086.452217322306	1
7	15786	15089.825930816843	0
7	16090	15415.351529030964	1
7	16091	15415.433802081021	0
7	16252	15610.324480951577	1
7	16261	15614.081596815143	0
7	16325	15677.001394521512	1
7	16326	15677.560593236714	0
7	16525	15838.51190285439	1
7	16526	15840.368552701564	0
7	16577	15883.795012751392	1
7	16581	15886.119508348934	0
7	16615	15900.190363672398	1
7	16616	15901.028792854617	0
7	16780	16111.363825921316	1
7	16781	16112.564277271588	0
7	16825	16192.874273586306	1
7	16826	16194.386149951763	0
7	16925	16262.903225880824	1
7	16926	16264.321711024305	0
7	16945	16275.771540842737	1
7	16946	16276.012243322385	0
7	17002	16356.300446033634	1
7	17006	16358.493591179781	0
7	17060	16381.986783424644	1
7	17061	16383.026813070672	0
7	17185	16497.966884895814	1
7	17186	16498.736799611353	0
7	17190	16499.531981168339	1
7	17191	16500.078993860834	0
7	17210	16506.582430529746	1
7	17211	16506.78047955373	0
7	17255	16548.719978341543	1
7	17256	16550.255576843448	0
7	17360	16641.857713096692	1
7	17361	16642.047128237255	0
7	17412	16698.682987259516	1
7	17416	16700.606625655632	0
7	17610	16912.352320674795	1
7	17611	16913.548866404479	0
7	17655	16942.711639999062	1
7	17656	16943.408413528177	0
7	17702	17003.085011473758	1
7	17721	17009.980957086831	0
7	17790	17099.532741590862	1
7	17791	17099.858463474713	0
7	17835	17143.506746104376	1
7	17836	17144.825659717891	0
7	17885	17190.644741496481	1
7	17886	17191.082129285569	0
7	17895	17192.743111509273	1
7	17896	17194.338849139485	0
7	17920	17211.581375741649	1
7	17921	17212.870670673339	0
7	17955	17230.658820286109	1
7	17956	17231.379977987518	0
7	17970	17237.152822801498	1
7	17971	17237.379406000196	0
7	18040	17288.018723953644	1
7	18041	17288.284888837329	0
7	18060	17301.565398920385	1
7	18061	17301.679214227724	0
7	18200	17449.41419035677	1
7	18201	17449.922158803779	0
7	18210	17452.84081928791	1
7	18211	17453.270602498378	0
7	18215	17454.971849267365	1
7	18216	17455.209973751742	0
7	18275	17488.546389378706	1
7	18276	17489.503847917972	0
7	18317	17515.641039437243	1
7	18321	17517.215839987458	0
7	18350	17534.752802171024	1
7	18351	17535.406705861179	0
7	18420	17594.381867132886	1
7	18431	17598.275791153598	0
7	18440	17600.594978362694	1
7	18447	17602.954057501166	2
7	18448	17603.558919292974	1
7	18451	17605.314628808672	0
7	18470	17614.796398385055	1
7	18471	17616.078780507623	0
7	18480	17627.284524262346	1
7	18481	17627.443024415876	0
7	18610	17763.4850489819	1
7	18611	17764.004194569091	0
7	18730	17901.365256639079	1
7	18731	17902.512830912435	0
7	18740	17904.846720372637	1
7	18741	17905.606698776895	0
7	18805	17990.827485470016	1
7	18806	17992.544694744731	0
7	18955	18187.047394322827	1
7	18956	18188.177255397799	0
7	19017	18240.384851739727	1
7	19031	18245.984683411707	0
7	19140	18347.026085511988	1
7	19141	18348.413344554892	0
7	19190	18404.196018227006	1
7	19191	18404.88433172418	0
7	19215	18437.237734746294	1
7	19216	18437.756961177346	0
7	19227	18440.445160722438	1
7	19236	18444.897872466277	0
7	19240	18445.126441973969	1
7	19241	18446.220514842365	0
7	19245	18446.22130640711	1
7	19246	18447.931963403951	0
7	19252	18448.874328845139	1
7	19256	18451.114188498314	0
7	19340	18528.434334740821	1
7	19341	18530.227391190039	0
7	19370	18555.391037078245	1
7	19371	18556.265638722711	0
7	19425	18602.696582030584	1
7	19426	18604.252874334889	0
7	19515	18664.460676350982	1
7	19516	18664.878737671475	0
7	19535	18687.188743872255	1
7	19536	18688.202902644111	0
7	19550	18698.959418163774	1
7	19551	18700.281105813443	0
7	19610	18748.958474087462	1
7	19611	18749.091065792165	0
7	19825	18967.707622203744	1
7	19836	18971.971481293341	0
7	19984	19084.12477597996	1
7	19991	19087.336882121845	0
7	20090	19217.118886243053	1
7	20091	19217.860822989177	0
7	20170	19321.613926625243	1
7	20171	19322.250726566804	0
7	20324	19438.349356137164	1
7	20344	19446.16367545004	2
7	20359	19450.453986836508	3
7	20360	19451.018955325931	2
7	20368	19453.920798228345	1
7	20371	19455.455830563269	0
7	20425	19514.712104340216	1
7	20426	19516.133315451517	0
7	20505	19590.685735338035	1
7	20506	19592.101641505848	0
7	20622	19741.099547619195	1
7	20626	19743.619847176745	0
7	20645	19771.722160385355	1
7	20646	19772.171026245028	0
7	20747	19928.789680984863	1
7	20751	19930.485954551009	0
7	20785	19958.250134896231	1
7	20786	19958.477081001229	0
7	20790	19958.619932072578	1
7	20791	19959.873547943174	0
7	20800	19963.35555501234	1
7	20801	19964.814771025521	0
7	20855	20012.18212625796	1
7	20856	20012.606506156568	0
7	20860	20012.713643868439	1
7	20861	20014.144269785304	0
7	20985	20123.405718273505	1
7	20986	20123.799613692971	0
7	21005	20136.449875811526	1
7	21006	20136.918377526517	0
7	21010	20138.028162021823	1
7	21011	20138.814912390563	0
7	21185	20295.953706196927	1
7	21186	20296.915760503689	0
7	21285	20387.569736309962	1
7	21286	20388.039657831967	0
7	21322	20427.358494035786	1
7	21326	20429.878313976593	0
7	21335	20434.415731408566	1
7	21342	20436.797844233036	2
7	21343	20437.813819173441	1
7	21354	20440.548584156551	2
7	21363	20444.576611683608	1
7	21371	20447.098155192935	0
7	21600	20685.920569428708	1
7	21601	20686.592460654755	0
7	21640	20759.125958284127	1
7	21641	20760.275295441634	0
7	21720	20860.407083933567	1
7	21724	20860.61478773318	2
7	21733	20864.068485894534	1
7	21736	20865.55182425018	0
7	21760	20879.891477971621	1
7	21766	20881.859284055301	0
7	21850	20970.482198185884	1
7	21851	20971.761852123636	0
7	21915	21022.488160177367	1
7	21916	21023.073240552368	0
7	22145	21277.786602344776	1
7	22146	21278.792786073326	0
7	22150	21280.169325903772	1
7	22151	21280.332109931498	0
7	22200	21331.843132688849	1
7	22201	21332.447804271502	0
7	22367	21524.615244932833	1
7	22381	21530.25780220135	0
7	22475	21673.197313600452	1
7	22476	21673.761666619187	0
7	22492	21681.837929715904	1
7	22501	21685.116648939774	0
7	22615	21758.165816002865	1
7	22616	21759.233096913699	0
7	22845	22074.828432691389	1
7	22846	22075.686527340566	0
7	22960	22175.511337168113	1
7	22961	22176.192811895133	0
7	23360	22634.488150129035	1
7	23381	22641.892597404511	0
7	23465	22704.220568726754	1
7	23466	22705.144003223447	0
7	23470	22705.351486689504	1
7	23471	22706.752259692369	0
7	23495	22723.56426290459	1
7	23496	22723.729344262027	0
7	23527	22738.729737916098	1
7	23531	22741.810460689283	0
7	23630	22827.480649214064	1
7	23631	22828.544870977644	0
7	23705	22878.086748629841	1
7	23706	22879.388083645303	0
7	23770	22975.928956224188	1
7	23771	22976.366144415566	0
7	23920	23138.62083639262	1
7	23921	23139.16219916322	0
7	24075	23339.468976203864	1
7	24076	23339.60532092235	0
7	24125	23386.298947447169	1
7	24126	23387.329457988073	0
7	24135	23389.313080253246	1
7	24136	23390.619396624011	0
7	24325	23609.11932570628	1
7	24326	23609.523207285949	0
7	24360	23636.801909468179	1
7	24361	23637.821080034127	0
7	24410	23674.28493492656	1
7	24411	23675.34524882108	0
7	24805	24110.31475064454	1
7	24806	24111.168197567711	0
7	24907	24208.253473233075	1
7	24911	24210.138652672101	0
7	24920	24212.516788849843	1
7	24921	24213.500379350263	0
7	25110	24386.952020723807	1
7	25111	24387.807348658283	0
7	25170	24453.93151066499	1
7	25176	24457.426991528627	0
7	25205	24482.097634358237	1
7	25211	24483.664392560949	0
7	25357	24624.916541358748	1
7	25361	24626.676280489578	0
7	25375	24632.159849780729	1
7	25376	24632.526816546267	0
7	25435	24680.399505518967	1
7	25436	24680.530163133265	0
7	25560	24782.270171521866	1
7	25561	24782.634544092174	0
7	25585	24794.272216738411	1
7	25601	24799.973631024198	0
7	25640	24816.828941633464	1
7	25641	24817.078244013857	0
7	25725	24889.117238106144	1
7	25726	24890.593103248882	0
7	25750	24917.911457184696	1
7	25751	24919.708651511589	0
7	25780	24950.809545176947	1
7	25786	24954.137788523066	0
7	25880	25069.980506934688	1
7	25881	25070.964648626587	0
7	25995	25217.226880998652	1
7	25996	25218.383818678014	0
7	26007	25220.692683582478	1
7	26021	25226.905899157949	0
7	26090	25302.366489656946	1
7	26091	25303.691228176196	0
7	26185	25360.93524173688	1
7	26186	25361.148439545787	0
7	26190	25362.443706975163	1
7	26191	25362.479625107951	0
7	26215	25394.740244897085	1
7	26216	25395.106812493777	0
7	26235	25439.374245320357	1
7	26236	25440.950010602455	0
7	26570	25794.292646231799	1
7	26576	25796.983646663941	0
7	26895	26041.18575680014	1
7	26896	26042.337521574962	0
7	27180	26324.866747921032	1
7	27181	26325.096890264954	0
7	27187	26326.550406389025	1
7	27191	26328.584662594105	0
7	27312	26439.740102981267	1
7	27316	26441.94525354048	0
7	27360	26488.717476528887	1
7	27361	26489.242966366352	0
7	27375	26493.905514529596	1
7	27376	26493.982531681636	0
7	27615	26709.057799049583	1
7	27616	26709.828062485158	0
7	27632	26713.767349873799	1
7	27641	26717.314221261441	0
7	27780	26832.048533885229	1
7	27781	26832.304510875481	0
7	27815	26858.436567866077	1
7	27816	26858.713136212041	0
7	27860	26886.620348577675	1
7	27866	26889.021584623566	0
7	27882	26912.254368654011	1
7	27896	26918.377900550582	0
7	28020	27049.679410270378	1
7	28027	27051.613378797305	2
7	28028	27052.713104319551	1
7	28031	27054.107028682136	0
7	28120	27197.168312199304	1
7	28121	27197.921611572717	0
7	28235	27309.212534157395	1
7	28236	27309.532341858429	0
7	28255	27319.666165879102	1
7	28256	27320.268253066896	0
7	28630	27799.425533947684	1
7	28631	27800.381958752651	0
7	28635	27801.169476815862	1
7	28636	27802.151610601288	0
7	28640	27803.304901007967	1
7	28641	27803.579166302983	0
7	28647	27804.964346756463	1
7	28651	27806.410725999963	0
7	28770	27907.249961359193	1
7	28771	27908.030501373889	0
7	28802	27952.989607315419	1
7	28807	27953.324354414276	2
7	28808	27955.059398448285	1
7	28811	27957.054031211701	0
7	28830	27980.685155102602	1
7	28841	27985.12101469919	0
7	28880	28019.11077900795	1
7	28881	28020.583766018317	0
7	28960	28090.501083708042	1
7	28961	28090.806935784819	0
7	28970	28094.106468952081	1
7	28976	28097.40641705644	0
7	29057	28179.117082422946	1
7	29062	28180.807640760175	2
7	29063	28182.005042210159	1
7	29066	28183.640878501658	0
7	29070	28183.944266729074	1
7	29071	28185.494411190536	0
7	29270	28401.275872157448	1
7	29271	28401.518282134162	0
7	29285	28415.499011630457	1
7	29286	28415.983891115391	0
7	29300	28425.546715917546	1
7	29301	28425.63819024293	0
7	29320	28469.9459583175	1
7	29321	28471.023880283045	0
7	29475	28680.521693206179	1
7	29476	28680.792923294678	0
7	29490	28684.103219172262	1
7	29491	28685.854177104608	0
7	29534	28702.697331710545	1
7	29561	28712.907432349343	0
7	29572	28714.82276814113	1
7	29576	28718.181853813809	0
7	29685	28854.553821396341	1
7	29686	28855.932005020493	0
7	29690	28857.296976246578	1
7	29691	28857.821087531635	0
7	29842	29016.744568246143	1
7	29846	29019.061175112457	0
7	29922	29126.900919068765	1
7	29926	29128.871247038974	0
7	29967	29172.326319735925	1
7	29974	29173.647998066111	2
7	29978	29176.825015906931	1
7	29984	29178.424858839822	2
7	29988	29180.190805166901	1
7	29991	29181.805273871996	0
7	30200	29406.466281122969	1
7	30201	29406.6589894442	0
7	30255	29484.729613974957	1
7	30271	29491.212866192003	0
7	30355	29570.170779629111	1
7	30361	29573.26261904094	0
7	30420	29632.603734920892	1
7	30426	29635.056176926313	0
7	30530	29763.374789023019	1
7	30531	29765.033734567337	0
7	30635	29862.728828040322	1
7	30636	29864.02159217787	0
8	11312	10640.359444811272	1
8	11314	10641.616181262455	0
8	11835	11159.540195457415	1
8	11836	11159.835106229005	0
8	12566	11842.298526583069	1
8	12568	11842.3417143275	0
8	12840	12089.399210886706	1
8	12844	12090.535359336503	0
8	15297	14616.817769424585	1
8	15299	14617.537931863229	0
8	15302	14618.763358794493	1
8	15304	14619.713343459275	0
8	15665	15013.045803347452	1
8	15666	15013.858850815555	0
8	16897	16247.450413943914	1
8	16901	16249.330166194983	0
8	19045	18250.295512519356	1
8	19049	18252.401291488585	0
8	19400	18578.8422025091	1
8	19401	18579.455964628073	0
8	20257	19404.969839455425	1
8	20259	19405.338010671536	0
8	20605	19732.089884642289	1
8	20611	19736.913839516703	0
8	24760	24079.564894309642	1
8	24761	24080.27767174228	0
8	25845	25041.167218156302	1
8	25846	25042.614459767123	0
8	27497	26592.319252473396	1
8	27501	26593.876236485918	0
8	27505	26595.235252293986	1
8	27506	26597.29982858398	0
8	27617	26709.828062485158	1
8	27619	26709.912338298946	0
8	28315	27355.6068088073	1
8	28316	27355.841727255887	0
8	29962	29171.536320260481	1
8	29964	29171.720593774274	0
9	12030	11343.348671951072	1
9	12031	11346.362135901263	0

