version 2
run Third_exit_8-12-20191017-13:44:27-2047
attr configname Third_exit_8
attr datetime 20191017-13:44:27
attr experiment Third_exit_8
attr inifile omnetpp.ini
attr iterationvars ""
attr iterationvarsf ""
attr measurement ""
attr network ResponseTimeNetwork
attr processid 2047
attr repetition 12
attr replication #12
attr resultdir results
attr runnumber 12
attr seedset 12
param **.Source.interArrivalTime exponential(6s)
param **.jobPriority bernoulli(0.8)
param **.PS.serviceTimeU1 "uniform(1.2s, 2.0s)"
param **.PS.serviceTimeU2 "uniform(2.4s, 2.8s)"
param **.SS1.serviceTime exponential(1.4s)
param **.SS2.serviceTime exponential(2s)
param **.PS.exitProbability bernoulli(0.8)

vector 0 ResponseTimeNetwork.SS1 queueLength:vector ETV
attr interpolationmode sample-hold
attr title "queue length, vector"
vector 1 ResponseTimeNetwork.SS2 queueLength:vector ETV
attr interpolationmode sample-hold
attr title "queue length, vector"
vector 2 ResponseTimeNetwork.QueueU1 queueLength:vector ETV
attr interpolationmode sample-hold
attr title "queue length, vector"
vector 3 ResponseTimeNetwork.QueueU2 queueLength:vector ETV
attr interpolationmode sample-hold
attr title "queue length, vector"
vector 4 ResponseTimeNetwork.sink lifeTimeU1:vector ETV
attr interpolationmode none
attr title "lifetime of arrived jobs U1, vector"
attr unit s
vector 5 ResponseTimeNetwork.sink lifeTime:vector ETV
attr interpolationmode none
attr title "lifetime of arrived jobs, vector"
attr unit s
vector 6 ResponseTimeNetwork.sink lifeTimeU2:vector ETV
attr interpolationmode none
attr title "lifetime of arrived jobs U2, vector"
attr unit s
2	0	0	0
2	10	4.550516140748	1
2	11	4.656831709887	0
2	30	12.265992421484	1
2	31	13.398468446206	0
2	47	19.157163242396	1
2	48	19.347088374646	0
2	64	24.026311150497	1
2	65	24.140682009684	0
2	69	24.767953830188	1
2	72	25.903033829184	0
2	81	28.274262280546	1
2	82	28.921964467952	0
2	86	30.123632261166	1
2	87	30.253458888719	0
2	95	31.675282404866	1
2	96	31.72117691383	0
2	100	33.069709702155	1
2	102	33.147936694644	2
2	103	33.681427733304	1
2	107	34.286495353151	2
2	108	35.31779861551	1
2	112	36.121658776038	2
2	114	36.838289212299	3
2	115	37.004405059556	2
2	119	37.418222328465	3
2	121	38.591131310486	4
2	122	38.945797886963	3
2	125	40.735848459679	2
2	128	42.678981657031	1
2	131	43.8954395403	0
2	135	44.461277006567	1
2	137	45.338291180665	2
2	138	45.844360978793	1
2	142	46.522296002131	2
2	144	46.645547287107	3
2	146	47.07449745332	4
2	147	47.166218069274	3
2	150	48.875178060014	2
2	154	48.920695775648	3
2	156	48.941142427994	4
2	157	50.09750429437	3
2	161	50.917272057724	4
2	162	51.474186311369	3
2	166	51.553414420072	4
2	167	53.074743755241	3
2	170	54.607839479004	2
2	174	55.36189158466	3
2	176	55.431623586844	4
2	177	55.84641447932	3
2	181	57.032292815474	4
2	182	57.689227801268	3
2	186	57.858052264529	4
2	189	59.44404976916	3
2	193	60.254191673717	4
2	195	60.636699172782	5
2	196	61.038239614372	4
2	200	61.904639208593	5
2	201	62.489264927697	4
2	204	64.110334959705	3
2	208	65.563146474914	4
2	209	65.79301944178	3
2	213	66.326545143612	4
2	215	66.614478597443	5
2	216	67.041927328784	4
2	219	68.683517340649	3
2	223	70.250643801612	4
2	224	70.63918250807	3
2	228	71.32108573545	4
2	229	72.315304471444	3
2	233	72.418350483296	4
2	235	73.950501392858	5
2	236	74.278897363957	4
2	239	75.493278130781	3
2	243	75.699078346754	4
2	244	77.143467855904	3
2	247	78.622944908667	2
2	253	80.069327352181	3
2	254	80.358911014612	2
2	258	80.837891468607	3
2	260	81.711406202272	4
2	261	81.862471381652	3
2	265	83.156971009924	4
2	268	83.295636732395	3
2	274	84.02476490456	4
2	275	84.859387169856	3
2	278	86.274966222871	2
2	282	86.408878172575	3
2	283	87.477596593913	2
2	286	89.228643769849	1
2	289	90.466704751816	0
2	293	90.702665410802	1
2	294	91.921593894702	0
2	298	92.14440311987	1
2	299	93.42976747368	0
2	306	96.427513080282	1
2	307	96.495298357014	0
2	316	98.04653436396	1
2	317	99.844095653001	0
2	321	101.19780147929	1
2	322	101.562678026486	0
2	326	102.299780021542	1
2	327	102.931164133441	0
2	331	103.594647266036	1
2	332	104.341554707367	0
2	336	104.802461618237	1
2	337	106.249696867246	0
2	341	106.565873027254	1
2	342	107.987667274553	0
2	346	108.204007222778	1
2	347	109.706034614224	0
2	351	110.709426489062	1
2	352	111.442940343622	0
2	359	113.320056161351	1
2	361	113.396352470349	2
2	362	114.57406720173	1
2	368	115.741848505746	2
2	369	116.096138516519	1
2	373	116.506020161687	2
2	374	117.40554481231	1
2	378	118.376620785236	2
2	379	119.350085626062	1
2	383	119.539251001141	2
2	384	120.611139813703	1
2	387	122.043237362322	0
2	394	124.013052778488	1
2	396	124.188911867579	2
2	398	125.274718390828	3
2	400	125.315628446045	4
2	401	125.472041638833	3
2	407	125.889587054989	4
2	408	126.922732769032	3
2	412	127.042498265931	4
2	413	128.131083492455	3
2	417	129.405024473324	4
2	418	129.596890683179	3
2	421	131.049425273654	2
2	425	132.862337394594	3
2	426	133.024319937718	2
2	430	133.609366245203	3
2	431	134.422300311443	2
2	435	134.986315898316	3
2	437	136.103557958903	4
2	438	136.304198947069	3
2	441	137.896962924194	2
2	445	138.389433131948	3
2	446	139.532117653903	2
2	450	139.720308502844	3
2	452	140.631390971453	4
2	453	141.326045901593	3
2	457	142.07629577232	4
2	458	143.053520579901	3
2	462	143.279769037133	4
2	464	143.781012777852	5
2	465	144.253858366501	4
2	468	145.692443192829	3
2	471	147.193105508652	2
2	475	147.698280689802	3
2	476	149.184007798028	2
2	480	150.940199442887	3
2	481	151.155740836714	2
2	485	151.52924777651	3
2	489	152.305395182324	4
2	491	152.324215913029	5
2	492	152.846663600844	4
2	495	154.506209837538	3
2	498	155.842539191511	2
2	502	156.611298900924	3
2	503	157.251618851241	2
2	507	157.395994553923	3
2	509	157.797524599683	4
2	510	158.54458343916	3
2	514	159.304642014623	4
2	515	160.462367453877	3
2	519	160.817875805396	4
2	520	161.738743656766	3
2	524	162.250801027491	4
2	526	162.43146835419	5
2	527	163.183742840667	4
2	530	164.463656227183	3
2	534	164.582162138783	4
2	535	165.670921168928	3
2	538	167.002505139341	2
2	541	168.96201039393	1
2	544	170.899471156565	0
2	548	172.060863687481	1
2	550	172.371299433724	2
2	552	172.444641450925	3
2	554	172.744003146688	4
2	555	172.80552771919	3
2	558	174.617120038239	2
2	561	175.944818534596	1
2	565	176.285769345518	2
2	566	177.384736975735	1
2	569	178.927666063128	0
2	576	181.692338409686	1
2	577	182.452571112556	0
2	581	182.488268659103	1
2	583	183.593399680068	2
2	584	184.16370156732	1
2	587	185.780745777009	0
2	591	186.048031121113	1
2	592	187.320333882688	0
2	599	189.417749741458	1
2	600	190.246469619578	0
2	630	199.536245086962	1
2	632	200.527616883039	2
2	633	200.705030306322	1
2	641	202.073835144104	2
2	642	202.580852378798	1
2	646	203.282405771978	2
2	648	203.567189227979	3
2	649	203.951009254796	2
2	653	204.509708472158	3
2	654	205.720391323125	2
2	658	206.608780465626	3
2	659	207.539836920692	2
2	663	208.232456958492	3
2	664	208.951940607919	2
2	668	209.116021420955	3
2	670	210.016115401416	4
2	672	210.606783587188	5
2	673	210.837881408899	4
2	677	211.94217693945	5
2	678	212.614829734421	4
2	682	213.097709710931	5
2	684	213.433165765043	6
2	685	214.054584053426	5
2	688	215.852256559475	4
2	692	216.228261287977	5
2	694	216.287931362643	6
2	696	217.172189512787	7
2	697	217.68926117093	6
2	701	217.88132342789	7
2	703	219.236497775034	8
2	704	219.660171565867	7
2	708	221.207599504837	8
2	709	221.520847659825	7
2	713	221.664239903746	8
2	714	222.863098220608	7
2	718	223.996325337922	8
2	719	224.539484324201	7
2	723	225.641489257574	8
2	724	226.105550679459	7
2	728	226.229054456213	8
2	730	226.507528448517	9
2	731	227.910043142072	8
2	735	229.28127096863	9
2	736	229.376892075582	8
2	740	229.534426559243	9
2	741	231.012376779771	8
2	745	231.331357540666	9
2	746	232.627775820425	8
2	749	233.917873646027	7
2	753	234.595201601768	8
2	755	234.843979687624	9
2	756	235.229025832085	8
2	759	236.57333941952	7
2	762	238.417733053012	6
2	765	240.146321421011	5
2	768	241.837069515406	4
2	771	243.136175240843	3
2	775	243.438228196037	4
2	776	244.617408476105	3
2	780	245.14713872082	4
2	782	245.812747490359	5
2	783	246.208855000777	4
2	787	246.434194090253	5
2	789	246.794444010629	6
2	790	247.624740059381	5
2	793	248.912743076389	4
2	796	250.52023313426	3
2	800	250.679712882282	4
2	801	252.306337454436	3
2	805	252.90560386916	4
2	807	252.959755493178	5
2	809	252.991729086725	6
2	811	253.404940668954	7
2	813	253.666897207356	8
2	814	253.853044293528	7
2	818	254.002321127872	8
2	819	255.117984404122	7
2	824	256.748466067655	6
2	828	256.888983754654	7
2	829	257.950900391011	6
2	833	258.204229538561	7
2	835	258.377070282263	8
2	837	258.647787889482	9
2	838	259.337281144677	8
2	842	260.22795483825	9
2	843	261.02155736786	8
2	846	262.754286017536	7
2	849	264.085802444338	6
2	853	265.495645644118	7
2	854	265.845327014185	6
2	858	266.142168454467	7
2	859	267.188272040605	6
2	863	268.57387202262	7
2	865	268.691924906845	8
2	866	269.114379718422	7
2	870	269.534333022354	8
2	872	270.199430044538	9
2	873	270.661014230072	8
2	877	271.930583599309	9
2	878	271.989735943719	8
2	882	272.583530814195	9
2	884	272.603074205639	10
2	886	272.891479915192	11
2	888	272.999254314063	12
2	889	273.685739157058	11
2	893	274.345797000145	12
2	894	275.645419827185	11
2	898	275.854039443911	12
2	900	276.587508822555	13
2	901	277.255518499657	12
2	905	278.692283150537	13
2	906	278.893903716735	12
2	909	280.757835056714	11
2	913	281.773377720549	12
2	914	282.17313498453	11
2	918	282.498092873262	12
2	920	283.429833727344	13
2	921	283.628289335861	12
2	925	283.817467354882	13
2	926	285.193260626576	12
2	930	285.210221299274	13
2	932	286.492351676329	14
2	935	287.125943616114	13
2	938	288.578530938446	12
2	941	290.406141609035	11
2	945	290.533819919405	12
2	947	291.54597519004	13
2	948	292.174868716009	12
2	951	293.586696790986	11
2	955	294.273905133715	12
2	957	294.524326714268	13
2	958	294.867985742808	12
2	962	295.648968023571	13
2	963	296.085077169806	12
2	967	296.286730746324	13
2	968	297.738438445039	12
2	972	298.72586968048	13
2	975	299.34572091949	12
2	978	300.642898289383	11
2	981	301.881917363674	10
2	985	302.347897518965	11
2	987	302.571393274588	12
2	988	303.525485102542	11
2	992	305.04085034784	12
2	993	305.469025461644	11
2	997	305.69248189886	12
2	999	305.730466409395	13
2	1002	307.35895358891	12
2	1006	307.61023085833	13
2	1007	309.108037352085	12
2	1010	310.609878281213	11
2	1013	312.464503027394	10
2	1017	312.519402833828	11
2	1019	313.121934345819	12
2	1020	313.822945499502	11
2	1024	313.96152721552	12
2	1025	315.816894341342	11
2	1029	315.880914291125	12
2	1030	317.745147748001	11
2	1034	318.06108284033	12
2	1036	319.000607885124	13
2	1037	319.274414602563	12
2	1041	319.716166327321	13
2	1042	321.157702796616	12
2	1046	322.753977704	13
2	1047	323.00651932963	12
2	1051	323.401790438602	13
2	1052	324.610611137085	12
2	1056	324.877102471853	13
2	1057	326.098961448379	12
2	1061	326.105785814195	13
2	1062	328.023027818173	12
2	1066	328.399521420599	13
2	1068	328.849091230041	14
2	1069	329.88695357804	13
2	1073	330.018857134935	14
2	1075	330.117567663532	15
2	1076	331.228131439991	14
2	1079	332.953055912524	13
2	1083	334.619748600212	14
2	1084	334.895068929612	13
2	1088	335.753864853963	14
2	1089	336.14595262286	13
2	1092	338.115084737621	12
2	1096	338.343900296274	13
2	1097	339.538244466752	12
2	1101	340.456234116572	13
2	1102	341.051073170163	12
2	1106	341.990077961565	13
2	1107	342.658179235541	12
2	1111	343.316796392153	13
2	1112	344.465336286359	12
2	1116	344.886219911739	13
2	1117	346.179066835985	12
2	1120	347.913192871482	11
2	1123	349.456624543377	10
2	1126	350.755248680607	9
2	1130	351.556594719581	10
2	1132	352.188173079671	11
2	1133	352.193453848631	10
2	1137	353.399134223925	11
2	1138	353.761067548104	10
2	1142	355.258966490503	11
2	1143	355.302943630971	10
2	1146	356.50815931157	9
2	1149	358.384923447378	8
2	1152	359.874908358499	7
2	1156	359.897357637862	8
2	1157	361.392737650767	7
2	1161	362.329616687535	8
2	1162	363.129379033007	7
2	1166	363.665192375902	8
2	1168	363.902585583413	9
2	1170	364.229732179779	10
2	1171	364.470687498793	9
2	1175	364.507228690708	10
2	1177	364.811887051375	11
2	1178	365.739665696479	10
2	1181	367.188726477965	9
2	1185	368.495857906093	10
2	1187	368.721036269002	11
2	1188	369.03423173622	10
2	1192	369.360988180095	11
2	1194	369.452600273701	12
2	1196	370.222324932531	13
2	1197	370.998819190159	12
2	1201	371.649074397684	13
2	1202	372.557108623616	12
2	1205	373.978560939699	11
2	1208	375.382676442049	10
2	1212	375.730360804001	11
2	1213	376.70998503071	10
2	1217	377.152595423271	11
2	1220	378.461243800528	10
2	1224	379.096836109465	11
2	1226	379.642287307689	12
2	1227	379.985268302157	11
2	1231	381.204850269298	12
2	1233	381.672280612172	13
2	1234	381.845656782098	12
2	1239	383.727791621059	11
2	1243	384.734500105743	12
2	1244	385.614201729454	11
2	1247	386.978629425809	10
2	1251	388.582914628775	11
2	1252	388.709302762419	10
2	1256	388.739646297824	11
2	1257	390.687251090899	10
2	1261	391.3832756911	11
2	1263	391.919809054977	12
2	1264	391.987428908877	11
2	1268	392.647528843664	12
2	1269	393.563933431812	11
2	1272	395.419813018002	10
2	1275	396.948448112876	9
2	1279	397.47385615285	10
2	1280	398.193003491954	9
2	1284	398.735644320432	10
2	1285	399.594007147	9
2	1289	399.822176951143	10
2	1290	400.926631428384	9
2	1293	402.685475041241	8
2	1296	404.105539093808	7
2	1300	404.523627015865	8
2	1301	405.322385090486	7
2	1305	406.425267706654	8
2	1306	406.901187781327	7
2	1310	407.01651671676	8
2	1312	407.840776954826	9
2	1314	408.139547879109	10
2	1315	408.822013703257	9
2	1319	408.833387810844	10
2	1321	409.238878587897	11
2	1322	410.051808876626	10
2	1326	410.379396580152	11
2	1327	411.313837275922	10
2	1331	412.363687926624	11
2	1332	412.85731834796	10
2	1336	413.925314065658	11
2	1337	414.718846598349	10
2	1341	415.224330860117	11
2	1342	416.582962943136	10
2	1346	417.24585594558	11
2	1347	418.076122710376	10
2	1351	418.77562918362	11
2	1352	419.882861004478	10
2	1355	421.419627543247	9
2	1358	422.771711289963	8
2	1361	424.400456988706	7
2	1365	424.478575496256	8
2	1366	426.238791129819	7
2	1370	427.113348707949	8
2	1371	427.638765883154	7
2	1376	429.61587658365	6
2	1380	430.397508451204	7
2	1381	431.540348450176	6
2	1384	433.285858545161	5
2	1388	433.285894186983	6
2	1390	434.330503487711	7
2	1391	434.865260231762	6
2	1394	436.704280201613	5
2	1397	437.981010125286	4
2	1401	438.905990280921	5
2	1403	438.993039339879	6
2	1405	439.810378541082	7
2	1406	439.816757153801	6
2	1409	441.058033346094	5
2	1412	442.44947545015	4
2	1416	443.324162163461	5
2	1418	443.653675632373	6
2	1419	443.923221922561	5
2	1423	444.211936481303	6
2	1424	445.722111345164	5
2	1428	445.847025344326	6
2	1429	446.928604289971	5
2	1433	447.123006781426	6
2	1434	448.611891645834	5
2	1438	449.695581775703	6
2	1439	449.978736970283	5
2	1443	450.831840649464	6
2	1445	451.219528077969	7
2	1446	451.905246998265	6
2	1450	452.775833418858	7
2	1451	453.202478184819	6
2	1455	454.008482398148	7
2	1457	454.079183692568	8
2	1458	455.111899765476	7
2	1462	455.427392573551	8
2	1463	456.470994141779	7
2	1466	458.283490146591	6
2	1470	458.378581993342	7
2	1471	460.184620666212	6
2	1474	461.406619989953	5
2	1478	462.932621103203	6
2	1479	463.247970480553	5
2	1483	463.682958676217	6
2	1485	464.446011149053	7
2	1487	464.449591603775	8
2	1488	464.756236409663	7
2	1492	465.069166253096	8
2	1494	465.19273962349	9
2	1496	465.990673784629	10
2	1497	466.248633810027	9
2	1501	468.039882914896	10
2	1502	468.060816794342	9
2	1506	469.079366079386	10
2	1507	469.582049058645	9
2	1511	469.769765193771	10
2	1512	470.94137503904	9
2	1515	472.415742829337	8
2	1519	473.050903543935	9
2	1520	473.846523466601	8
2	1524	474.861902792428	9
2	1525	475.560178580589	8
2	1529	475.695370605253	9
2	1530	477.405885753862	8
2	1534	478.316628133824	9
2	1536	478.44755410706	10
2	1537	479.037181640498	9
2	1541	480.596277991853	10
2	1542	480.998775953695	9
2	1546	481.523312467382	10
2	1547	482.742233170464	9
2	1550	484.506665270671	8
2	1554	485.709983187932	9
2	1555	486.026634125121	8
2	1559	486.126158305635	9
2	1561	486.253231614228	10
2	1562	487.823093141884	9
2	1568	489.203318572537	10
2	1570	489.241532352493	11
2	1571	489.441614673742	10
2	1574	491.242298239552	9
2	1578	491.972598433295	10
2	1579	492.785189651594	9
2	1583	494.110019269761	10
2	1584	494.535429058493	9
2	1587	496.450724680618	8
2	1591	496.958649407097	9
2	1592	497.785571735807	8
2	1596	498.328177047203	9
2	1597	499.089560778149	8
2	1601	499.289554050822	9
2	1602	500.331484174066	8
2	1605	502.237556017459	7
2	1609	502.331385957971	8
2	1611	503.639585324586	9
2	1612	503.803986016743	8
2	1616	504.384580856628	9
2	1617	505.552669619665	8
2	1621	506.183762069859	9
2	1622	507.195924943395	8
2	1625	508.772322633199	7
2	1629	510.282831947863	8
2	1630	510.605526144512	7
2	1634	511.53737901607	8
2	1635	512.444231237181	7
2	1639	513.057367048881	8
2	1641	513.168207143177	9
2	1642	513.707157446526	8
2	1646	515.035921244709	9
2	1647	515.143375189684	8
2	1651	516.674407299204	9
2	1652	516.837560504757	8
2	1656	517.252727919052	9
2	1657	518.618894028001	8
2	1660	520.153451546737	7
2	1663	521.547000858084	6
2	1667	523.48558525895	7
2	1668	523.545970706724	6
2	1672	524.269122956687	7
2	1673	524.920291119337	6
2	1677	525.304089794079	7
2	1678	526.671048494138	6
2	1682	527.10045320762	7
2	1684	527.261088895416	8
2	1685	528.257076240786	7
2	1688	529.651352088981	6
2	1692	530.752073779672	7
2	1695	531.208188594774	6
2	1699	531.746657880116	7
2	1701	531.963045218257	8
2	1702	532.89914846354	7
2	1706	534.390581608775	8
2	1707	534.544093026676	7
2	1711	536.026570865316	8
2	1712	536.103280517169	7
2	1716	536.708757584495	8
2	1717	537.360198218831	7
2	1721	537.984450640102	8
2	1722	538.878391502322	7
2	1725	540.220149054461	6
2	1729	540.326162593887	7
2	1732	541.522756441952	6
2	1736	543.00046225683	7
2	1737	543.252692782776	6
2	1741	544.167796995968	7
2	1742	544.570999545129	6
2	1746	544.766727708969	7
2	1748	545.524087739533	8
2	1749	546.002051652307	7
2	1752	547.784800962815	6
2	1755	549.36693236799	5
2	1759	549.766518027759	6
2	1760	550.612332681651	5
2	1764	550.808174616281	6
2	1766	551.23750481628	7
2	1767	552.298828299056	6
2	1770	553.86004189727	5
2	1773	555.181266387823	4
2	1776	556.669862704064	3
2	1780	557.288565072294	4
2	1781	558.619925462353	3
2	1784	560.53753749569	2
2	1787	562.10712392469	1
2	1791	562.479450967034	2
2	1793	562.698711125761	3
2	1795	563.523673250288	4
2	1796	563.783174990947	3
2	1800	564.285046094751	4
2	1801	565.020905119451	3
2	1805	565.234920634856	4
2	1807	565.823480981242	5
2	1809	566.440580195235	6
2	1810	567.000116103972	5
2	1814	567.249922729679	6
2	1816	567.457730162282	7
2	1817	568.51836832081	6
2	1820	570.25325884902	5
2	1824	570.263359393385	6
2	1826	571.676844100032	7
2	1827	571.9423725943	6
2	1831	572.454605920055	7
2	1833	573.000659803171	8
2	1834	573.457913547094	7
2	1838	573.812644912111	8
2	1839	574.9931099479	7
2	1843	575.421301623895	8
2	1844	576.921732222373	7
2	1847	578.147427839311	6
2	1851	578.874356594791	7
2	1853	579.008796664953	8
2	1854	580.006829177113	7
2	1858	580.955428489239	8
2	1860	581.358361722718	9
2	1861	581.818883914025	8
2	1865	582.171334975899	9
2	1867	582.79496966531	10
2	1869	583.086099849727	11
2	1870	583.560369682023	10
2	1874	584.539584746983	11
2	1875	584.892862322638	10
2	1878	586.164351687106	9
2	1882	586.230574799544	10
2	1883	587.879965851168	9
2	1887	587.994497921813	10
2	1888	589.237872443805	9
2	1891	591.224438765543	8
2	1894	592.681856394457	7
2	1898	592.689232644946	8
2	1900	593.563214722826	9
2	1901	594.287686961415	8
2	1905	594.738199083659	9
2	1906	595.991374525885	8
2	1909	597.785435571047	7
2	1912	599.708840665119	6
2	1915	601.118230198035	5
2	1919	602.309003573776	6
2	1920	602.642744869078	5
2	1924	603.206315208499	6
2	1926	603.259382114414	7
2	1928	603.756488470158	8
2	1929	604.55085189798	7
2	1933	604.611769598925	8
2	1935	604.721835153509	9
2	1937	605.616188433968	10
2	1938	606.086268594946	9
2	1942	607.199140075349	10
2	1943	607.496121488969	9
2	1947	608.198155130111	10
2	1948	609.114634192634	9
2	1951	611.01803526384	8
2	1955	611.422141339681	9
2	1956	612.674972270887	8
2	1960	613.295319528013	9
2	1961	614.464754678022	8
2	1965	615.081317561447	9
2	1966	616.096497513812	8
2	1970	616.734548586802	9
2	1972	617.372157822291	10
2	1973	617.491082410227	9
2	1977	618.452272730407	10
2	1978	619.130487752605	9
2	1982	620.201126447531	10
2	1983	620.8395841184	9
2	1987	621.470818653132	10
2	1989	622.187475428232	11
2	1990	622.420287941668	10
2	1993	624.303156753715	9
2	1997	624.785078877585	10
2	1998	626.191879044931	9
2	2002	626.776002156017	10
2	2004	627.09665739393	11
2	2006	627.425160136025	12
2	2008	628.040249302191	13
2	2009	628.07396541712	12
2	2014	629.811471615072	11
2	2018	630.83236283735	12
2	2019	631.456318774532	11
2	2023	632.484054930723	12
2	2024	632.743887150745	11
2	2028	633.77544570181	12
2	2030	634.397170984007	13
2	2031	634.433545840058	12
2	2035	636.053630314262	13
2	2037	636.053662921689	14
2	2039	636.209375023965	15
2	2040	636.416427789155	14
2	2044	636.540324958553	15
2	2045	637.840573985401	14
2	2049	638.049564036317	15
2	2050	639.457900945927	14
2	2054	639.978896631387	15
2	2055	641.336834515902	14
2	2058	642.601411724734	13
2	2062	643.35500844058	14
2	2064	643.695108888131	15
2	2066	644.029054752906	16
2	2067	644.484201050076	15
2	2070	645.950214253637	14
2	2073	647.907859726149	13
2	2077	648.223333122194	14
2	2078	649.22582877678	13
2	2082	649.900561812945	14
2	2083	651.086624135907	13
2	2086	652.340486618216	12
2	2090	653.668566693597	13
2	2091	653.706016534279	12
2	2094	654.909437690015	11
2	2097	656.434983696873	10
2	2100	657.898969885233	9
2	2103	659.862404435772	8
2	2107	659.9770910031	9
2	2109	661.218661260303	10
2	2110	661.514817005295	9
2	2114	662.021280679924	10
2	2116	662.309213687762	11
2	2117	662.872838087838	10
2	2121	663.278327906877	11
2	2123	663.472896767678	12
2	2125	664.012603208527	13
2	2126	664.732747276399	12
2	2129	666.255594919149	11
2	2133	666.534672765779	12
2	2135	667.366436766244	13
2	2136	668.007257812184	12
2	2140	668.582299926193	13
2	2141	669.480019230482	12
2	2145	669.546859043227	13
2	2147	670.508728947206	14
2	2148	671.176450939749	13
2	2152	671.707162812909	14
2	2154	672.700584033362	15
2	2155	672.756209888582	14
2	2159	673.125674081628	15
2	2162	674.187135112	14
2	2166	674.46510372158	15
2	2168	675.970584486726	16
2	2169	676.148357632098	15
2	2173	676.47179212865	16
2	2174	677.877098729548	15
2	2180	678.556080443654	16
2	2181	679.494026673672	15
2	2184	680.986146125657	14
2	2187	682.280515268905	13
2	2190	683.520468740253	12
2	2193	685.294363722665	11
2	2197	685.549841374545	12
2	2199	686.236973155733	13
2	2201	686.95224157961	14
2	2202	687.25348083218	13
2	2206	687.327586607088	14
2	2208	687.437458978846	15
2	2209	688.513599541312	14
2	2213	689.056353041487	15
2	2215	689.234364494547	16
2	2216	690.052871758392	15
2	2220	691.184880048865	16
2	2221	692.00172914443	15
2	2225	692.065515668516	16
2	2228	693.42033285824	15
2	2232	694.235507643105	16
2	2233	694.875688461674	15
2	2237	696.384701572603	16
2	2238	696.72760122781	15
2	2241	698.470257862372	14
2	2245	699.023147671725	15
2	2247	699.456093215948	16
2	2248	700.375801581418	15
2	2251	701.609010569094	14
2	2255	702.244068633197	15
2	2256	703.436419182359	14
2	2260	703.946731885179	15
2	2261	705.407796803205	14
2	2264	706.774624043978	13
2	2268	707.40192255991	14
2	2270	708.268264715336	15
2	2271	708.295286434419	14
2	2274	709.876626956738	13
2	2278	711.201049428833	14
2	2279	711.822474314361	13
2	2283	713.329370750046	14
2	2284	713.481226821705	13
2	2288	714.199447527533	14
2	2289	715.134634708888	13
2	2292	716.799811150222	12
2	2295	718.410956759467	11
2	2299	719.325715772088	12
2	2301	719.691513173046	13
2	2302	720.122562781438	12
2	2306	721.83462326746	13
2	2308	721.889791061742	14
2	2309	722.052437006585	13
2	2312	723.539375921987	12
2	2316	723.786392774521	13
2	2317	725.006344321087	12
2	2321	726.538162111859	13
2	2322	726.57604431165	12
2	2326	727.873283769699	13
2	2327	728.063576209076	12
2	2330	730.023993912801	11
2	2334	730.245426281778	12
2	2336	730.301096172597	13
2	2337	731.37193176122	12
2	2340	733.357437273018	11
2	2343	734.931933472581	10
2	2347	735.742355252783	11
2	2348	736.272791092187	10
2	2352	736.303453393486	11
2	2354	737.412301933457	12
2	2355	737.724770003088	11
2	2359	738.499913309538	12
2	2360	739.385999886222	11
2	2363	741.005020768843	10
2	2366	742.944191429108	9
2	2369	744.771243082076	8
2	2373	745.924591559629	9
2	2374	746.347715310841	8
2	2378	746.522906326046	9
2	2380	746.629098348435	10
2	2381	747.72987817274	9
2	2385	749.037489764872	10
2	2386	749.433922722466	9
2	2389	751.179815379806	8
2	2393	752.101429113023	9
2	2394	752.669739944205	8
2	2397	754.33631398277	7
2	2400	756.21938883932	6
2	2404	757.480737672575	7
2	2406	757.743278471367	8
2	2407	758.076680923343	7
2	2410	759.866958646007	6
2	2413	761.394893939883	5
2	2417	761.721036951743	6
2	2419	761.791351434973	7
2	2421	762.840979203327	8
2	2422	762.84127988489	7
2	2426	763.186855742448	8
2	2428	764.248910690158	9
2	2429	764.349195556805	8
2	2433	764.376545340357	9
2	2434	765.706575795912	8
2	2438	766.29111814635	9
2	2439	767.405747975685	8
2	2443	767.407769437023	9
2	2445	767.501127119829	10
2	2446	769.073405869209	9
2	2450	770.076130839641	10
2	2452	770.117118735566	11
2	2453	770.513285486118	10
2	2456	771.959148015172	9
2	2460	772.404859864621	10
2	2461	773.395570505128	9
2	2464	775.085521962956	8
2	2468	775.227365466255	9
2	2469	776.964680279136	8
2	2472	778.714055580177	7
2	2476	779.061016963962	8
2	2478	779.255783827034	9
2	2480	779.749130381167	10
2	2482	779.994896118215	11
2	2483	780.363793964029	10
2	2487	780.567545257038	11
2	2489	781.62053145503	12
2	2490	782.239066957586	11
2	2494	782.732529751688	12
2	2495	783.484132741482	11
2	2499	783.843675819944	12
2	2501	783.959911129687	13
2	2503	784.52796886326	14
2	2504	784.982793793918	13
2	2507	786.98005198417	12
2	2511	787.564057444924	13
2	2512	788.404358313323	12
2	2516	790.036786243695	13
2	2517	790.359915079639	12
2	2521	791.004767449345	13
2	2522	792.287599781432	12
2	2526	792.85183628309	13
2	2527	793.712434425109	12
2	2530	794.980143893973	11
2	2533	796.399364327916	10
2	2537	797.178589643137	11
2	2539	797.587052448822	12
2	2541	797.597132000773	13
2	2542	798.179704193116	12
2	2546	798.777294667097	13
2	2548	798.967484521964	14
2	2549	800.013116720409	13
2	2555	800.091016932422	14
2	2557	800.138621416883	15
2	2559	801.223880697453	16
2	2561	801.304211168006	17
2	2563	801.833429363856	18
2	2564	801.940155827903	17
2	2568	803.027264566536	18
2	2569	803.586264914923	17
2	2572	805.26563174361	16
2	2576	806.659997539675	17
2	2577	806.983385172948	16
2	2581	808.493018306612	17
2	2582	808.726539591975	16
2	2585	810.721896145582	15
2	2589	811.086323602156	16
2	2590	812.488990229085	15
2	2594	812.771159835845	16
2	2595	813.852848852701	15
2	2598	815.507812438063	14
2	2602	816.132973894918	15
2	2604	817.208781787779	16
2	2605	817.321634230852	15
2	2608	818.844611866116	14
2	2612	819.203006995441	15
2	2613	820.786678371481	14
2	2617	821.442851303967	15
2	2618	822.405636435463	14
2	2622	822.817020076592	15
2	2624	823.050241745797	16
2	2625	823.71107698278	15
2	2628	824.939069541446	14
2	2632	825.376759325501	15
2	2634	825.432048308927	16
2	2636	825.971145783995	17
2	2637	826.506273167296	16
2	2641	826.729195529355	17
2	2642	828.01606044834	16
2	2645	829.380095012761	15
2	2649	830.758226108872	16
2	2650	831.297193827941	15
2	2653	832.612811706304	14
2	2657	833.420495739054	15
2	2658	833.884177028477	14
2	2661	835.241041147612	13
2	2664	837.170185164452	12
2	2668	837.522830368414	13
2	2669	839.102634598963	12
2	2673	839.414944867131	13
2	2674	840.751453885526	12
2	2678	841.322260029257	13
2	2679	842.3721341514	12
2	2683	842.698786233457	13
2	2685	843.453575295844	14
2	2686	844.317936444373	13
2	2689	846.117195804694	12
2	2693	847.289126253619	13
2	2695	847.406016682366	14
2	2696	847.641516323664	13
2	2700	848.22868557288	14
2	2701	848.910123603322	13
2	2707	850.264616049752	14
2	2708	850.551726990842	13
2	2712	850.554209916964	14
2	2713	852.524664317162	13
2	2717	853.72796582646	14
2	2718	854.500211416275	13
2	2722	855.867480243614	14
2	2723	856.243741195553	13
2	2726	858.118634601214	12
2	2730	859.553948223824	13
2	2731	859.671261636072	12
2	2735	860.089619146828	13
2	2738	861.219660390445	12
2	2742	861.401835086107	13
2	2743	862.46969191292	12
2	2747	862.998570210783	13
2	2749	863.108184823532	14
2	2751	863.361876395595	15
2	2752	863.953207247236	14
2	2756	864.993537837131	15
2	2757	865.821833863759	14
2	2760	867.047727196754	13
2	2763	868.9378003736	12
2	2767	869.030719240963	13
2	2769	869.23419519077	14
2	2770	870.528085718022	13
2	2773	872.084273340457	12
2	2776	873.568856484347	11
2	2780	874.344788243714	12
2	2782	874.579956183728	13
2	2783	875.086980158926	12
2	2786	876.661067501173	11
2	2790	876.848567666699	12
2	2792	878.317281885856	13
2	2793	878.402295340688	12
2	2797	878.943196148135	13
2	2798	880.315530373991	12
2	2801	881.603445308745	11
2	2805	883.103215698242	12
2	2806	883.44231008561	11
2	2810	883.493726137143	12
2	2812	883.777386573205	13
2	2814	883.893545855024	14
2	2816	884.748268994928	15
2	2817	885.069743658692	14
2	2820	886.992006906212	13
2	2824	887.783254972797	14
2	2825	888.662944403381	13
2	2828	890.343279922285	12
2	2831	891.697891184219	11
2	2835	892.367867297476	12
2	2836	893.431467723192	11
2	2840	894.418470654102	12
2	2841	894.786909831965	11
2	2845	895.98689424724	12
2	2847	896.114139707279	13
2	2848	896.417669084759	12
2	2851	897.632518615478	11
2	2855	898.743653829991	12
2	2856	899.244470674635	11
2	2860	899.724847817027	12
2	2862	900.994603176342	13
2	2863	901.170151821242	12
2	2869	902.160153300881	13
2	2870	902.407161084094	12
2	2874	902.48424687719	13
2	2876	903.511792765971	14
2	2877	904.00093865981	13
2	2880	905.856948025428	12
2	2884	906.216409257657	13
2	2886	907.238477303785	14
2	2887	907.45583667671	13
2	2891	908.055887176041	14
2	2892	908.728298350327	13
2	2896	908.783960253006	14
2	2897	910.426992341779	13
2	2901	910.593907791714	14
2	2902	912.369164336562	13
2	2906	912.789126385469	14
2	2907	913.738619423002	13
2	2911	914.54843348827	14
2	2912	915.408998525418	13
2	2918	915.628703885557	14
2	2920	917.090243809639	15
2	2921	917.306956025675	14
2	2925	917.568318277442	15
2	2926	918.982480093367	14
2	2930	919.309240932057	15
2	2931	920.832563357144	14
2	2934	922.30925466632	13
2	2938	923.614977243516	14
2	2939	923.633986199549	13
2	2943	923.757485610801	14
2	2945	923.839712965517	15
2	2946	924.943770931377	14
2	2950	925.974102642223	15
2	2951	926.620374177857	14
2	2955	926.894280760307	15
2	2958	928.0635328629	14
2	2962	929.471369242097	15
2	2963	929.60305230291	14
2	2966	930.969202744676	13
2	2970	931.444019001073	14
2	2972	931.496193345914	15
2	2974	932.655062438344	16
2	2975	932.772690463154	15
2	2979	933.110710970753	16
2	2981	933.950721802351	17
2	2982	933.991400923109	16
2	2985	935.238019323437	15
2	2988	937.2114745737	14
2	2992	938.161026859061	15
2	2993	939.059772959253	14
2	2996	940.968986047892	13
2	3002	941.360133629826	14
2	3004	941.558158130157	15
2	3005	942.815358767001	14
2	3008	944.377475110529	13
2	3011	946.167471985234	12
2	3015	946.49550508618	13
2	3017	947.200545003759	14
2	3018	947.51864816816	13
2	3021	948.818190406723	12
2	3025	949.516870024438	13
2	3027	950.042370864289	14
2	3029	950.382244924514	15
2	3031	950.640157739657	16
2	3032	950.705054251565	15
2	3035	952.038759178011	14
2	3039	953.094319778221	15
2	3041	953.265737683368	16
2	3042	953.392145668989	15
2	3045	954.982849968685	14
2	3049	955.422818839337	15
2	3051	955.635254947326	16
2	3052	956.590886492184	15
2	3056	956.766500395312	16
2	3058	956.781153316423	17
2	3060	957.149811933633	18
2	3061	958.133490596055	17
2	3064	959.575947658434	16
2	3068	960.384145995741	17
2	3069	960.947142759427	16
2	3072	962.574425883308	15
2	3076	962.595473773607	16
2	3078	963.813528951756	17
2	3079	964.291376343831	16
2	3083	965.125532120982	17
2	3084	965.591823293358	16
2	3088	965.598662876272	17
2	3090	965.77091930058	18
2	3091	966.913116156213	17
2	3094	968.787573850058	16
2	3098	969.149046366458	17
2	3099	970.724584150031	16
2	3102	972.020938877664	15
2	3106	973.361136031616	16
2	3107	973.659223662964	15
2	3111	973.859852918778	16
2	3113	974.835420146202	17
2	3114	975.38699500402	16
2	3118	976.709476217175	17
2	3119	977.241918122671	16
2	3123	977.773692748518	17
2	3124	979.019921437367	16
2	3127	980.347520526028	15
2	3133	980.683976302003	16
2	3134	981.707695176727	15
2	3138	981.734376444404	16
2	3139	983.095561892255	15
2	3143	983.163345767583	16
2	3144	984.828373006447	15
2	3147	986.51443045502	14
2	3151	986.70660603514	15
2	3152	988.289210222563	14
2	3156	988.47173581043	15
2	3157	990.277902776277	14
2	3161	990.352661466588	15
2	3163	991.051346073485	16
2	3165	992.009113390039	17
2	3166	992.029877785867	16
2	3170	992.365902384646	17
2	3171	993.270280845551	16
2	3175	994.025165623557	17
2	3176	994.793957485905	16
2	3179	996.40956586962	15
2	3183	996.426690658264	16
2	3185	996.705946806431	17
2	3187	996.796383455161	18
2	3189	996.988885862136	19
2	3190	997.973005810281	18
2	3195	999.648024820437	17
2	3198	1001.350444445101	16
2	3201	1002.894136124936	15
2	3205	1002.961182262718	16
2	3207	1003.754853136816	17
2	3208	1004.599224237812	16
2	3212	1004.694574686166	17
2	3214	1005.507042626106	18
2	3216	1005.934294255323	19
2	3217	1006.564091209223	18
2	3220	1008.322404432943	17
2	3224	1008.375622086369	18
2	3226	1008.717576227989	19
2	3228	1009.457655612772	20
2	3229	1010.095571009343	19
2	3233	1010.143444327402	20
2	3234	1011.941739326803	19
2	3238	1012.857204308722	20
2	3239	1013.317892977683	19
2	3243	1013.544086582703	20
2	3244	1014.961370915262	19
2	3248	1015.920118309164	20
2	3249	1016.948628923943	19
2	3253	1017.107085848455	20
2	3254	1018.497157120978	19
2	3258	1018.681675487934	20
2	3259	1020.288727800635	19
2	3263	1020.810501505223	20
2	3264	1022.069693655794	19
2	3267	1023.455341615429	18
2	3271	1023.617317418734	19
2	3273	1023.627514909519	20
2	3274	1025.199372320896	19
2	3278	1025.307720937795	20
2	3279	1027.108200690983	19
2	3283	1028.072812130678	20
2	3284	1028.980543430051	19
2	3287	1030.568503979122	18
2	3290	1031.886122299073	17
2	3294	1033.284741520137	18
2	3295	1033.750464519573	17
2	3301	1033.93571193762	18
2	3303	1034.334171195781	19
2	3305	1035.250564058276	20
2	3306	1035.268879018439	19
2	3310	1035.850455421839	20
2	3311	1037.128391829593	19
2	3314	1039.124808400398	18
2	3318	1039.215374840204	19
2	3319	1041.123419040901	18
2	3322	1043.108171926712	17
2	3326	1044.348461101396	18
2	3327	1044.846506720309	17
2	3331	1045.125507412809	18
2	3333	1045.466352900487	19
2	3334	1046.699598784459	18
2	3338	1047.008502520785	19
2	3339	1048.196783262951	18
2	3343	1048.943283018771	19
2	3344	1049.705874534225	18
2	3348	1050.524121097108	19
2	3349	1051.587987766502	18
2	3353	1052.011347092678	19
2	3354	1052.802746354503	18
2	3360	1054.272309973813	19
2	3361	1054.316932594491	18
2	3365	1054.600078195988	19
2	3367	1055.318953874334	20
2	3369	1055.390231786702	21
2	3372	1055.955978112941	20
2	3376	1056.655588833596	21
2	3377	1057.546006423136	20
2	3380	1059.081394692411	19
2	3384	1059.677845501974	20
2	3385	1060.768852060561	19
2	3388	1062.321123000321	18
2	3392	1063.590233431015	19
2	3393	1063.699031624471	18
2	3397	1064.657438978748	19
2	3399	1064.716306518828	20
2	3401	1064.88424059226	21
2	3402	1065.628661930089	20
2	3406	1066.87953227964	21
2	3407	1067.004907310468	20
2	3410	1068.607067970832	19
2	3413	1069.971447813784	18
2	3417	1070.033891525502	19
2	3418	1071.756567544577	18
2	3422	1072.540359175062	19
2	3423	1073.136655959946	18
2	3427	1073.895867383838	19
2	3428	1074.451254762423	18
2	3433	1075.895745713723	17
2	3436	1077.544388734077	16
2	3440	1077.625166280357	17
2	3444	1078.443334734427	18
2	3446	1079.26098021348	19
2	3447	1079.446104654384	18
2	3451	1080.972801544508	19
2	3452	1081.002160759916	18
2	3456	1082.40454320185	19
2	3457	1082.957346123544	18
2	3461	1084.179517732872	19
2	3462	1084.892878912104	18
2	3466	1086.701317419923	19
2	3467	1086.851672867587	18
2	3470	1088.079107677465	17
2	3473	1089.594469584984	16
2	3477	1089.900485793455	17
2	3479	1090.19341306809	18
2	3480	1090.909010940504	17
2	3484	1091.573259979058	18
2	3485	1092.265588085999	17
2	3489	1093.353287368067	18
2	3491	1093.877117537646	19
2	3492	1094.226291494717	18
2	3496	1095.136480966747	19
2	3498	1095.250897050199	20
2	3499	1095.86946414755	19
2	3503	1096.486146941946	20
2	3504	1097.757406851363	19
2	3508	1097.792051215446	20
2	3509	1099.704277330351	19
2	3512	1101.186439899442	18
2	3515	1102.55982044441	17
2	3518	1104.247906626662	16
2	3521	1105.450828763744	15
2	3524	1107.289712762548	14
2	3527	1108.589624526998	13
2	3531	1108.774057582228	14
2	3532	1110.033338981023	13
2	3535	1111.734580056084	12
2	3539	1111.814418500092	13
2	3541	1112.973438420247	14
2	3542	1113.449523114314	13
2	3545	1114.795990724018	12
2	3549	1115.646205157536	13
2	3550	1116.725201201713	12
2	3553	1118.208209682716	11
2	3556	1119.668092948658	10
2	3559	1121.13202501153	9
2	3563	1122.43405952162	10
2	3564	1122.527615067078	9
2	3567	1124.154060411727	8
2	3571	1124.441597786794	9
2	3572	1125.68003399623	8
2	3576	1125.839858828753	9
2	3578	1127.024830521145	10
2	3580	1127.0452335597	11
2	3581	1127.517874047806	10
2	3585	1128.088679116649	11
2	3587	1128.398124852184	12
2	3588	1129.458460901206	11
2	3592	1129.702057650948	12
2	3594	1130.157666514319	13
2	3595	1131.45129144126	12
2	3598	1133.33013155525	11
2	3602	1133.535279423789	12
2	3604	1133.842663701148	13
2	3606	1134.163468396471	14
2	3608	1134.544202416423	15
2	3610	1135.041623220821	16
2	3611	1135.237351394532	15
2	3615	1135.727137283115	16
2	3617	1135.815247882845	17
2	3618	1137.103292502736	16
2	3621	1138.766157354501	15
2	3625	1139.818431562914	16
2	3626	1140.061434168641	15
2	3630	1141.45370890089	16
2	3631	1141.89688142882	15
2	3634	1143.82283391421	14
2	3638	1144.646753324915	15
2	3639	1145.629822553408	14
2	3642	1147.400182990071	13
2	3646	1148.120461173626	14
2	3647	1148.842624678176	13
2	3650	1150.743184359085	12
2	3654	1151.125671877517	13
2	3655	1152.572900667872	12
2	3658	1154.031835886176	11
2	3662	1155.085391111695	12
2	3663	1155.310069161739	11
2	3667	1156.719739629302	12
2	3668	1157.249582598816	11
2	3672	1158.419592909921	12
2	3673	1158.558409548077	11
2	3677	1159.955668714614	12
2	3678	1160.040867699395	11
2	3682	1160.595842139244	12
2	3684	1161.361010815895	13
2	3685	1161.713850519705	12
2	3689	1162.399033840881	13
2	3690	1163.360089513	12
2	3694	1163.589050187214	13
2	3696	1164.11164136969	14
2	3698	1164.604182119423	15
2	3699	1165.248411845874	14
2	3702	1166.786620383423	13
2	3706	1166.911505711467	14
2	3708	1168.24491395234	15
2	3709	1168.398879083704	14
2	3713	1169.815193945912	15
2	3714	1170.204077627223	14
2	3718	1170.97743911724	15
2	3719	1172.154375032421	14
2	3723	1172.482360168788	15
2	3724	1173.877829169195	14
2	3727	1175.217147975687	13
2	3731	1175.306666206814	14
2	3732	1177.13584628598	13
2	3736	1178.0941664656	14
2	3737	1178.799450288426	13
2	3741	1179.270636568788	14
2	3742	1180.211246273007	13
2	3746	1181.36373962606	14
2	3747	1181.666349729795	13
2	3750	1183.13459414066	12
2	3754	1183.781615403464	13
2	3755	1184.857789811578	12
2	3759	1185.225098109676	13
2	3760	1186.298906107519	12
2	3764	1186.905687873101	13
2	3765	1187.574637946572	12
2	3769	1188.023460901898	13
2	3770	1189.478156248752	12
2	3774	1190.340460585952	13
2	3775	1190.81518482295	12
2	3779	1191.053503135392	13
2	3780	1192.438988767277	12
2	3784	1192.616820621816	13
2	3785	1193.91155918901	12
2	3789	1193.990609240079	13
2	3790	1195.257364410061	12
2	3794	1195.336742192434	13
2	3795	1196.628267830137	12
2	3798	1197.942775464516	11
2	3802	1198.482987198037	12
2	3804	1198.849400724145	13
2	3806	1199.382240044714	14
2	3808	1199.662942333418	15
2	3809	1199.695161743361	14
2	3813	1200.607929570847	15
2	3814	1201.219147070769	14
2	3818	1201.521799169344	15
2	3819	1202.663927548278	14
2	3823	1203.349933487673	15
2	3826	1204.114960764993	14
2	3830	1204.487296998526	15
2	3831	1205.90047282343	14
2	3834	1207.712028613214	13
2	3838	1207.800459921249	14
2	3840	1209.047663656451	15
2	3841	1209.140796356921	14
2	3845	1210.075466186873	15
2	3846	1210.955722892557	14
2	3850	1211.677978794722	15
2	3852	1212.44665671508	16
2	3853	1212.551336249237	15
2	3857	1214.050740417228	16
2	3858	1214.264041616109	15
2	3862	1214.492771017451	16
2	3863	1216.130423437145	15
2	3867	1216.287278310352	16
2	3868	1217.919115201842	15
2	3872	1218.403614203543	16
2	3873	1219.869188912298	15
2	3877	1220.420747134162	16
2	3879	1221.522119688986	17
2	3880	1221.753835216995	16
2	3884	1222.920287600275	17
2	3887	1223.240841122057	16
2	3890	1224.77968158656	15
2	3893	1226.086955725115	14
2	3897	1227.912696729451	15
2	3898	1228.005705417033	14
2	3902	1228.239202565917	15
2	3903	1229.423170351695	14
2	3907	1229.429648712466	15
2	3909	1229.980841841482	16
2	3910	1230.701421215471	15
2	3913	1232.659007737313	14
2	3917	1232.953027123717	15
2	3919	1233.744913516388	16
2	3920	1234.431118140828	15
2	3924	1234.487364218125	16
2	3925	1236.177181658607	15
2	3929	1236.647564911546	16
2	3930	1237.821209121395	15
2	3934	1238.730312233451	16
2	3935	1239.691380832803	15
2	3939	1240.313994348902	16
2	3940	1241.108782441441	15
2	3944	1242.417106064946	16
2	3945	1242.469955278274	15
2	3949	1243.02912989225	16
2	3950	1243.871347512205	15
2	3953	1245.665570146304	14
2	3956	1247.158133925584	13
2	3959	1248.507491474499	12
2	3965	1249.072936420061	13
2	3967	1249.197322964883	14
2	3969	1249.382556760278	15
2	3970	1250.333199276862	14
2	3974	1250.334685925749	15
2	3975	1251.771686712926	14
2	3979	1251.999885374403	15
2	3981	1252.643430672601	16
2	3982	1253.162321131391	15
2	3986	1253.920240069495	16
2	3988	1254.045105545359	17
2	3989	1254.831483406102	16
2	3993	1255.101107823442	17
2	3995	1256.426877407837	18
2	3996	1256.515378009801	17
2	3999	1257.750584865448	16
2	4003	1259.600165083804	17
2	4004	1259.628377888997	16
2	4007	1260.944023304892	15
2	4011	1260.976494527575	16
2	4013	1261.340192485483	17
2	4015	1261.997359546764	18
2	4016	1262.356467829359	17
2	4019	1264.189720121299	16
2	4023	1264.643789858213	17
2	4024	1265.55863523939	16
2	4028	1266.131536495344	17
2	4029	1266.844233947334	16
2	4032	1268.054565431264	15
2	4036	1268.28874197059	16
2	4038	1269.650047721458	17
2	4040	1269.779393082794	18
2	4041	1269.893008674023	17
2	4045	1270.122192968594	18
2	4046	1271.701371692208	17
2	4050	1271.896988689705	18
2	4052	1272.092003535905	19
2	4053	1273.467797620309	18
2	4056	1274.938672794116	17
2	4060	1275.194790103391	18
2	4061	1276.232065069017	17
2	4064	1277.963594100711	16
2	4068	1277.989221775195	17
2	4069	1279.407128552248	16
2	4073	1279.888047529596	17
2	4075	1279.960854551437	18
2	4076	1280.821397980389	17
2	4080	1281.565131006829	18
2	4081	1282.67887197872	17
2	4085	1283.045525969033	18
2	4087	1283.329938595478	19
2	4089	1284.145667733623	20
2	4090	1284.343520258826	19
2	4094	1285.030277596237	20
2	4095	1285.996424933423	19
2	4099	1286.956559892409	20
2	4101	1287.517049846176	21
2	4102	1287.733215155166	20
2	4106	1289.124316418652	21
2	4107	1289.57990719964	20
2	4110	1291.170332952116	19
2	4113	1292.717747108352	18
2	4117	1293.410239145748	19
2	4119	1293.939185781364	20
2	4121	1294.08697616046	21
2	4122	1294.540095337008	20
2	4126	1295.145188270811	21
2	4127	1296.292639961553	20
2	4131	1296.595025835908	21
2	4132	1297.804771988553	20
2	4136	1298.084848519245	21
2	4138	1298.483916098096	22
2	4140	1298.812318867008	23
2	4142	1298.87121356843	24
2	4143	1299.621703551424	23
2	4147	1300.700127444119	24
2	4148	1301.190080240269	23
2	4151	1302.458042384212	22
2	4154	1303.710787940485	21
2	4158	1303.858683591343	22
2	4160	1304.983888835745	23
2	4161	1305.644855863316	22
2	4164	1306.904644385254	21
2	4168	1307.816864072938	22
2	4170	1308.133509505839	23
2	4171	1308.785400484217	22
2	4175	1309.685203153741	23
2	4176	1310.785283801233	22
2	4180	1310.866662299007	23
2	4182	1310.97361876812	24
2	4184	1311.005020296669	25
2	4186	1311.062182122752	26
2	4187	1312.225649027614	25
2	4191	1312.818471910716	26
2	4192	1313.868685162155	25
2	4196	1314.812909784528	26
2	4198	1315.177285467134	27
2	4199	1315.797871478548	26
2	4203	1316.315368191753	27
2	4204	1317.002875347895	26
2	4207	1318.714571237465	25
2	4210	1320.451734546845	24
2	4214	1322.000219512911	25
2	4215	1322.24269278412	24
2	4218	1324.149305673402	23
2	4222	1324.464707395387	24
2	4224	1325.503272304671	25
2	4225	1325.732028120656	24
2	4229	1326.269394670341	25
2	4230	1327.616264716063	24
2	4234	1328.077211676891	25
2	4236	1328.629070328373	26
2	4237	1329.365766538207	25
2	4240	1331.28178575271	24
2	4244	1331.289988542035	25
2	4246	1331.989600416214	26
2	4247	1332.876107910734	25
2	4251	1333.192628528489	26
2	4252	1334.457923777115	25
2	4256	1335.314786345845	26
2	4257	1335.809644773689	25
2	4260	1337.042744125326	24
2	4264	1338.317792805097	25
2	4265	1338.600652947177	24
2	4269	1338.663364715617	25
2	4272	1340.529961410251	24
2	4276	1341.791367105539	25
2	4277	1342.035599622217	24
2	4281	1342.562742381532	25
2	4282	1343.917855262284	24
2	4286	1344.254212845703	25
2	4288	1344.924909928251	26
2	4289	1345.778340683964	25
2	4293	1347.226132840171	26
2	4294	1347.545576270942	25
2	4298	1347.883645347297	26
2	4299	1349.502587540906	25
2	4302	1351.264648767274	24
2	4306	1351.755527990631	25
2	4307	1353.192318235237	24
2	4311	1354.969753581144	25
2	4312	1355.03895558295	24
2	4316	1355.29586142768	25
2	4318	1355.524804051261	26
2	4319	1356.55050444686	25
2	4323	1357.858819405436	26
2	4324	1358.334409482304	25
2	4328	1358.468264136313	26
2	4329	1359.580471980099	25
2	4333	1359.64763319178	26
2	4334	1361.127918898959	25
2	4338	1362.375938572547	26
2	4339	1362.613716307555	25
2	4342	1364.113196667929	24
2	4345	1365.496036386949	23
2	4349	1365.788033135021	24
2	4350	1367.391694169951	23
2	4354	1367.508743813036	24
2	4356	1368.306629837826	25
2	4357	1369.366052439337	24
2	4361	1370.528396131823	25
2	4362	1371.088164899771	24
2	4366	1372.008742399178	25
2	4367	1373.054934656893	24
2	4370	1375.02646260531	23
2	4373	1376.97194121973	22
2	4376	1378.931010978384	21
2	4380	1379.472634029663	22
2	4381	1380.163910173899	21
2	4385	1380.887212372759	22
2	4387	1381.849105175845	23
2	4389	1381.888465449821	24
2	4390	1382.147389133549	23
2	4394	1383.041585467929	24
2	4395	1383.572665185383	23
2	4398	1385.446349456994	22
2	4402	1386.577161229257	23
2	4403	1387.322121111019	22
2	4407	1387.329678971036	23
2	4408	1389.293076919666	22
2	4412	1390.106200835183	23
2	4413	1390.798419795832	22
2	4417	1392.371407019999	23
2	4418	1392.397803201242	22
2	4422	1392.450585432815	23
2	4423	1393.750818073093	22
2	4427	1394.448691658557	23
2	4429	1395.225953849424	24
2	4431	1395.389396892064	25
2	4432	1395.49516562046	24
2	4436	1396.15455904787	25
2	4437	1397.110603516637	24
2	4441	1397.703029979328	25
2	4442	1398.539184117592	24
2	4445	1400.359426224879	23
2	4448	1401.950592126786	22
2	4452	1402.878712892252	23
2	4453	1403.228851937219	22
2	4457	1403.997957916884	23
2	4459	1404.7675553863	24
2	4460	1405.002145803809	23
2	4464	1405.650315121617	24
2	4466	1406.613384525884	25
2	4467	1406.899507718995	24
2	4470	1408.245511051729	23
2	4474	1408.398396114156	24
2	4476	1409.185657755617	25
2	4477	1409.517867148012	24
2	4481	1410.534184094735	25
2	4482	1411.358280825891	24
2	4485	1412.605996372827	23
2	4489	1412.932785594964	24
2	4490	1413.895625102983	23
2	4494	1414.675351882352	24
2	4495	1415.62586054364	23
2	4499	1416.05391170298	24
2	4500	1416.852696034776	23
2	4503	1418.301110160256	22
2	4507	1419.006835215831	23
2	4508	1419.738157941306	22
2	4514	1420.623772584119	23
2	4516	1420.672787012554	24
2	4517	1421.48702813899	23
2	4520	1423.110882774273	22
2	4524	1424.204598408354	23
2	4525	1424.509006635005	22
2	4528	1425.874094080644	21
2	4532	1426.133493488369	22
2	4534	1426.489541726891	23
2	4536	1426.618290701141	24
2	4537	1427.731030327732	23
2	4541	1428.864155917083	24
2	4542	1429.648986755403	23
2	4546	1430.086314398574	24
2	4547	1431.251970320659	23
2	4550	1432.51705015702	22
2	4554	1432.748840071688	23
2	4555	1434.178340556378	22
2	4559	1435.335093782783	23
2	4560	1435.811170712764	22
2	4564	1435.962693441457	23
2	4565	1437.02086220784	22
2	4569	1438.215171436413	23
2	4570	1438.661816894914	22
2	4574	1439.147287520869	23
2	4575	1440.156788696627	22
2	4579	1440.362323106395	23
2	4582	1442.080079597513	22
2	4586	1443.227934072233	23
2	4587	1444.077575899008	22
2	4591	1444.441440392515	23
2	4592	1445.494513339642	22
2	4595	1447.342063421104	21
2	4599	1447.568746752566	22
2	4600	1448.670789900329	21
2	4603	1450.069721263554	20
2	4607	1450.76413689689	21
2	4608	1451.285163157899	20
2	4612	1451.288425805015	21
2	4613	1452.802926648315	20
2	4616	1454.11042885175	19
2	4620	1454.98347179709	20
2	4621	1455.732758278307	19
2	4625	1457.112222697824	20
2	4626	1457.117216988747	19
2	4630	1458.217687198164	20
2	4631	1458.64313613372	19
2	4634	1459.977603271325	18
2	4638	1460.768003870577	19
2	4640	1460.939852491637	20
2	4641	1461.346398310271	19
2	4644	1462.866665868555	18
2	4648	1463.262803104045	19
2	4649	1464.170318794344	18
2	4652	1465.939784192387	17
2	4656	1466.661308328906	18
2	4658	1466.663895501	19
2	4659	1467.677332777064	18
2	4663	1467.76918096195	19
2	4665	1468.000652388376	20
2	4667	1468.385239143286	21
2	4668	1469.161449676286	20
2	4672	1469.192788728593	21
2	4674	1470.217975279864	22
2	4675	1470.362344773393	21
2	4679	1470.896746282866	22
2	4680	1471.827196799125	21
2	4684	1473.152724647952	22
2	4686	1473.334188543892	23
2	4687	1473.346210957784	22
2	4690	1474.683937342744	21
2	4694	1475.901771416244	22
2	4695	1476.552547318395	21
2	4698	1477.775020372029	20
2	4702	1478.439124991568	21
2	4704	1478.528954973687	22
2	4705	1479.303245423827	21
2	4709	1480.762866808705	22
2	4710	1480.789761339407	21
2	4714	1481.449535319206	22
2	4715	1482.019083727989	21
2	4719	1483.451332923294	22
2	4720	1483.773717342782	21
2	4724	1483.910875700194	22
2	4726	1484.765722713028	23
2	4727	1485.334580785687	22
2	4730	1486.755287662427	21
2	4733	1488.031244813184	20
2	4737	1488.972092293284	21
2	4738	1489.453720082248	20
2	4742	1489.919270226065	21
2	4743	1490.719523040856	20
2	4747	1491.014537519388	21
2	4749	1491.077872462832	22
2	4751	1491.636649670729	23
2	4752	1492.365208199712	22
2	4756	1492.655111534757	23
2	4757	1494.194907399545	22
2	4761	1494.985925153652	23
2	4762	1495.535040440875	22
2	4765	1497.322262334543	21
2	4769	1497.835831457259	22
2	4771	1497.870033358073	23
2	4773	1499.282156650483	24
2	4774	1499.298799164871	23
2	4778	1499.473836128706	24
2	4780	1499.511036548578	25
2	4782	1500.625981584834	26
2	4783	1500.841338046918	25
2	4787	1501.325086960207	26
2	4788	1502.831805269139	25
2	4792	1503.104232984978	26
2	4793	1504.252933559099	25
2	4797	1504.653912473385	26
2	4798	1505.764864314625	25
2	4801	1507.633614755886	24
2	4804	1509.223941727633	23
2	4808	1509.915459118033	24
2	4810	1510.322403254001	25
2	4811	1510.96469791429	24
2	4815	1511.907647728588	25
2	4816	1512.608220299425	24
2	4821	1514.026673972885	23
2	4825	1514.695168549925	24
2	4827	1515.450250624371	25
2	4828	1515.942306237574	24
2	4831	1517.17237163959	23
2	4835	1518.935141531332	24
2	4836	1518.978104269411	23
2	4840	1518.989600501402	24
2	4842	1520.352294559774	25
2	4843	1520.770250188652	24
2	4847	1521.922174096015	25
2	4848	1522.155094530712	24
2	4851	1523.452390125486	23
2	4856	1524.818047601635	22
2	4860	1526.037195025969	23
2	4862	1526.291565546869	24
2	4863	1526.764832495245	23
2	4867	1527.371243052392	24
2	4868	1528.681080381292	23
2	4871	1530.222656350489	22
2	4875	1531.419732380362	23
2	4876	1531.631510747317	22
2	4880	1532.38448623722	23
2	4881	1533.013389227632	22
2	4885	1534.263460357776	23
2	4886	1534.673796944972	22
2	4890	1535.001904399862	23
2	4892	1535.444177077358	24
2	4893	1536.18789621843	23
2	4897	1536.191365753232	24
2	4898	1537.729334746767	23
2	4902	1538.194165804294	24
2	4903	1539.016143857595	23
2	4907	1539.211911852954	24
2	4908	1540.241442963761	23
2	4912	1541.441622836695	24
2	4913	1541.782601885778	23
2	4916	1543.043374268619	22
2	4920	1543.797785591827	23
2	4921	1544.490091436637	22
2	4925	1544.732436300886	23
2	4927	1545.328597923486	24
2	4929	1545.750935157509	25
2	4930	1546.200996806194	24
2	4934	1547.345140933648	25
2	4935	1547.930575613213	24
2	4938	1549.328545267974	23
2	4942	1550.31285546476	24
2	4943	1551.008601603937	23
2	4947	1551.388823161556	24
2	4948	1552.824758865592	23
2	4952	1554.005012860556	24
2	4953	1554.425339146797	23
2	4957	1554.447444747747	24
2	4959	1554.935741833275	25
2	4961	1555.570452798233	26
2	4962	1555.786004407611	25
2	4966	1555.823860312399	26
2	4967	1557.492481795606	25
2	4971	1557.927949168398	26
2	4973	1558.075062599756	27
2	4975	1558.461059628643	28
2	4976	1559.082411623095	27
2	4980	1559.979445780085	28
2	4981	1560.784730160517	27
2	4985	1560.959600602147	28
2	4986	1562.350441092161	27
2	4989	1563.915926360247	26
2	4993	1564.866260906034	27
2	4995	1565.848012069317	28
2	4996	1565.901910824796	27
2	5000	1566.03694953488	28
2	5001	1567.473870447	27
2	5005	1567.720637099506	28
2	5006	1569.240115925578	27
2	5009	1570.734525781592	26
2	5012	1572.162426709665	25
2	5015	1574.079717691524	24
2	5019	1574.5910541131	25
2	5021	1575.294848771137	26
2	5023	1575.526523711831	27
2	5024	1576.075117137564	26
2	5027	1577.817684771401	25
2	5030	1579.2128429777	24
2	5034	1579.339199246087	25
2	5036	1579.429897906067	26
2	5038	1580.001239507991	27
2	5039	1580.730700248947	26
2	5043	1581.307161730955	27
2	5044	1582.627059825977	26
2	5047	1583.913597151545	25
2	5051	1584.777775183321	26
2	5052	1585.602831105796	25
2	5056	1586.479459026221	26
2	5057	1587.421374946368	25
2	5061	1587.803123160065	26
2	5063	1587.92135254656	27
2	5065	1588.673907910316	28
2	5066	1588.867121663411	27
2	5070	1589.833207393627	28
2	5071	1590.587087507826	27
2	5074	1592.510825771187	26
2	5078	1592.749914334911	27
2	5079	1594.256535965484	26
2	5083	1595.145709607644	27
2	5085	1595.493916465372	28
2	5087	1595.866207075324	29
2	5088	1596.157690633927	28
2	5092	1596.661998165134	29
2	5093	1597.612434083876	28
2	5097	1599.258798198646	29
2	5098	1599.48705544388	28
2	5101	1601.445622716565	27
2	5104	1603.338222912792	26
2	5107	1604.66450493196	25
2	5111	1605.87382897349	26
2	5113	1605.965298634578	27
2	5114	1606.496683000494	26
2	5118	1607.317612270288	27
2	5119	1608.426319690515	26
2	5122	1609.74853084134	25
2	5125	1611.129302771483	24
2	5129	1612.065136175108	25
2	5131	1612.30472382733	26
2	5132	1612.337645495218	25
2	5136	1613.314730312615	26
2	5137	1613.680850833376	25
2	5141	1614.419900970318	26
2	5142	1614.937488098537	25
2	5145	1616.500274881629	24
2	5148	1618.438377161978	23
2	5152	1618.630948274152	24
2	5153	1620.278830996996	23
2	5157	1620.414065813032	24
2	5159	1621.502956871698	25
2	5160	1621.882802796459	24
2	5164	1621.972216505939	25
2	5166	1622.176876006352	26
2	5168	1622.307802029949	27
2	5172	1622.700907962861	28
2	5174	1623.694550415766	29
2	5176	1623.696872764087	30
2	5177	1623.789594730644	29
2	5181	1623.806626377719	30
2	5183	1625.129534955611	31
2	5184	1625.157969365737	30
2	5187	1626.558225263751	29
2	5191	1626.815722440334	30
2	5192	1627.776364615655	29
2	5196	1628.70419348272	30
2	5198	1629.002485646495	31
2	5199	1629.347573758385	30
2	5202	1630.708440157867	29
2	5205	1632.203175357266	28
2	5209	1632.829676242121	29
2	5211	1633.271029520076	30
2	5212	1633.5168879631	29
2	5216	1635.064475215576	30
2	5217	1635.223836451306	29
2	5220	1636.661633291564	28
2	5223	1638.580282091073	27
2	5227	1639.800179919016	28
2	5228	1640.220131922982	27
2	5232	1640.289672024246	28
2	5233	1641.60767687904	27
2	5237	1642.585195823591	28
2	5239	1643.013359570918	29
2	5241	1643.136795658486	30
2	5242	1643.576408697016	29
2	5246	1644.905193735886	30
2	5248	1645.089266495794	31
2	5249	1645.540981940276	30
2	5253	1645.858038007657	31
2	5255	1645.898115988882	32
2	5257	1646.867660365802	33
2	5258	1647.091444699935	32
2	5262	1647.272139924635	33
2	5264	1648.034628110321	34
2	5265	1648.655138441458	33
2	5269	1648.791940329787	34
2	5270	1650.216765665918	33
2	5274	1650.783988404592	34
2	5275	1651.679584785461	33
2	5278	1653.585618226513	32
2	5281	1654.948374512516	31
2	5285	1656.596466220006	32
2	5287	1656.61496715727	33
2	5288	1656.713965272442	32
2	5292	1657.999652698256	33
2	5293	1658.088882467993	32
2	5297	1658.367235091435	33
2	5300	1659.661155566484	32
2	5304	1660.934830742022	33
2	5305	1661.115143753872	32
2	5308	1662.332513105222	31
2	5312	1663.353184263846	32
2	5313	1663.553665072569	31
2	5316	1665.362798324698	30
2	5320	1665.824031725824	31
2	5321	1667.006737470725	30
2	5325	1668.150409830688	31
2	5327	1668.341593341451	32
2	5328	1668.722033603401	31
2	5332	1669.440334460162	32
2	5333	1670.013698395067	31
2	5337	1670.529877750342	32
2	5338	1671.427024875679	31
2	5342	1672.828306169514	32
2	5343	1673.2692466897	31
2	5347	1673.347334002704	32
2	5348	1674.471256438554	31
2	5352	1675.03636448457	32
2	5353	1675.947870439761	31
2	5356	1677.423769706399	30
2	5360	1678.734173463185	31
2	5361	1678.857475977675	30
2	5365	1679.592050313923	31
2	5367	1679.808397869935	32
2	5368	1680.131731201806	31
2	5372	1680.429882151664	32
2	5374	1681.02310368606	33
2	5375	1681.444550322094	32
2	5379	1681.940347518141	33
2	5380	1683.059349568286	32
2	5383	1684.560090839402	31
2	5387	1684.842710585837	32
2	5388	1685.772435428486	31
2	5391	1687.035896645398	30
2	5394	1688.661300419369	29
2	5398	1689.316714250448	30
2	5400	1689.748798898697	31
2	5401	1690.43357415563	30
2	5405	1690.959718840484	31
2	5406	1692.278110962832	30
2	5410	1693.224960576951	31
2	5411	1693.647587983222	30
2	5416	1694.885629575053	29
2	5420	1695.717204367195	30
2	5422	1695.786127329003	31
2	5423	1696.314390855195	30
2	5427	1698.132258412003	31
2	5428	1698.223259732598	30
2	5431	1700.189786325121	29
2	5434	1701.487401232594	28
2	5438	1701.548815875929	29
2	5439	1703.381484291614	28
2	5442	1704.811728498624	27
2	5446	1704.992102515175	28
2	5448	1705.257206432425	29
2	5450	1705.639281126844	30
2	5451	1706.246715274924	29
2	5455	1706.791067667525	30
2	5456	1708.010439332114	29
2	5460	1708.237104149422	30
2	5462	1708.86175068321	31
2	5463	1709.323093810589	30
2	5466	1710.755436516837	29
2	5469	1711.975273514823	28
2	5473	1712.171253216462	29
2	5474	1713.349836668097	28
2	5478	1713.710952352012	29
2	5479	1714.653789067552	28
2	5483	1716.325371032325	29
2	5484	1716.534340760395	28
2	5488	1717.574848123345	29
2	5489	1718.035664747007	28
2	5492	1719.696502623431	27
2	5496	1720.076320451884	28
2	5497	1721.566565895736	27
2	5501	1723.091191093861	28
2	5503	1723.160437535369	29
2	5504	1723.377877538189	28
2	5508	1723.520749502751	29
2	5510	1723.888537068433	30
2	5511	1724.611126480907	29
2	5515	1725.032566207523	30
2	5516	1725.837545120813	29
2	5519	1727.428420642488	28
2	5523	1728.004711670789	29
2	5524	1728.933682300061	28
2	5528	1730.22613324565	29
2	5529	1730.60575885503	28
2	5532	1732.260983280003	27
2	5535	1734.251337387696	26
2	5538	1736.082693271622	25
2	5541	1737.639721174635	24
2	5544	1739.59281943804	23
2	5547	1740.923335243113	22
2	5551	1741.271045109794	23
2	5553	1741.595092882557	24
2	5555	1742.189582486156	25
2	5556	1742.84828780806	24
2	5559	1744.262962248273	23
2	5563	1745.550219809403	24
2	5565	1745.644856342833	25
2	5566	1745.751043482594	24
2	5570	1747.05629639204	25
2	5571	1747.498848462015	24
2	5575	1747.628739808224	25
2	5577	1748.313465636206	26
2	5578	1749.322610830985	25
2	5582	1749.62363610161	26
2	5583	1751.311737742744	25
2	5587	1751.764916792478	26
2	5588	1753.080345106221	25
2	5592	1754.481727587118	26
2	5593	1754.59153251434	25
2	5597	1755.044258023405	26
2	5599	1755.485349311555	27
2	5601	1755.530175030469	28
2	5603	1756.551236322808	29
2	5604	1756.591440808496	28
2	5608	1757.853241915175	29
2	5609	1758.272772616243	28
2	5613	1758.656445833302	29
2	5614	1759.917572783215	28
2	5617	1761.225702492243	27
2	5621	1761.770775706642	28
2	5622	1762.834659164122	27
2	5626	1762.924611112328	28
2	5628	1764.005536559193	29
2	5629	1764.221128667987	28
2	5633	1765.334384375537	29
2	5635	1765.686902750718	30
2	5636	1766.052174359097	29
2	5640	1766.653905843071	30
2	5641	1768.048933524548	29
2	5645	1768.095090200359	30
2	5647	1768.190694916661	31
2	5648	1769.501060132219	30
2	5651	1770.866248993299	29
2	5655	1770.918080704137	30
2	5657	1772.334717327601	31
2	5658	1772.532988192796	30
2	5662	1772.957649611386	31
2	5663	1774.228291257194	30
2	5667	1775.781610349406	31
2	5668	1775.979761454931	30
2	5671	1777.896953058897	29
2	5676	1779.532660806088	28
2	5680	1780.230419757237	29
2	5682	1781.072931780807	30
2	5683	1781.346703935137	29
2	5687	1781.912904932433	30
2	5688	1782.606608192345	29
2	5691	1784.505551376102	28
2	5694	1786.277540016083	27
2	5698	1786.733621303544	28
2	5699	1787.480255096687	27
2	5702	1788.871802842153	26
2	5706	1788.901349272569	27
2	5707	1790.700394125005	26
2	5710	1792.329491690269	25
2	5714	1793.095442054059	26
2	5716	1793.513347244995	27
2	5718	1793.572909712503	28
2	5719	1794.32907539597	27
2	5723	1794.652445954002	28
2	5725	1795.204907436702	29
2	5727	1795.39205102178	30
2	5728	1795.737082623599	29
2	5732	1795.883662722497	30
2	5734	1796.743860163462	31
2	5735	1797.010690772442	30
2	5739	1797.292079646522	31
2	5740	1798.959158220237	30
2	5744	1800.898854069275	31
2	5745	1800.91172884172	30
2	5748	1802.816557087658	29
2	5752	1803.055923198704	30
2	5755	1804.260603898114	29
2	5758	1806.236704217924	28
2	5761	1807.587585387847	27
2	5765	1808.397889402418	28
2	5767	1808.971124946311	29
2	5769	1809.27702419814	30
2	5770	1809.465850966519	29
2	5773	1811.257814571729	28
2	5777	1812.806344124248	29
2	5778	1813.089135558253	28
2	5782	1814.871589321268	29
2	5783	1815.067649832463	28
2	5787	1815.077879020622	29
2	5789	1815.184089022615	30
2	5790	1817.022917150615	29
2	5794	1818.922501204557	30
2	5795	1818.934905312119	29
2	5799	1819.128967962479	30
2	5800	1820.663714253625	29
2	5804	1820.867847963719	30
2	5805	1822.213227475343	29
2	5809	1822.548400363268	30
2	5810	1824.177157442739	29
2	5813	1825.491923359876	28
2	5817	1826.182869440581	29
2	5819	1826.515773950669	30
2	5820	1827.406530294476	29
2	5824	1827.895533178087	30
2	5825	1828.61445175009	29
2	5829	1828.853288497546	30
2	5833	1829.406396842543	31
2	5834	1830.605595657883	30
2	5838	1831.915466742383	31
2	5840	1832.138009700469	32
2	5841	1832.301148632264	31
2	5844	1833.95440136241	30
2	5847	1835.199871153852	29
2	5850	1836.486499754434	28
2	5853	1837.834927522486	27
2	5856	1839.254663314206	26
2	5860	1839.44838745559	27
2	5861	1840.581122491417	26
2	5865	1841.902305673228	27
2	5866	1842.083784492222	26
2	5870	1842.290607416937	27
2	5872	1842.307100227781	28
2	5874	1842.674609095787	29
2	5876	1842.881294939065	30
2	5877	1843.670797324275	29
2	5880	1845.204878202361	28
2	5884	1846.62462693394	29
2	5886	1846.869424877133	30
2	5887	1847.02091675913	29
2	5890	1848.44862923706	28
2	5893	1849.661406852957	27
2	5897	1850.479983148437	28
2	5898	1851.205560539384	27
2	5901	1852.80288270386	26
2	5905	1853.294616868246	27
2	5906	1854.263252093178	26
2	5910	1855.744579088561	27
2	5911	1856.237217005809	26
2	5915	1856.312626937384	27
2	5917	1857.063294506847	28
2	5919	1857.297738926994	29
2	5921	1857.38792069409	30
2	5922	1857.960955213477	29
2	5926	1857.98173167536	30
2	5927	1859.703886524868	29
2	5930	1860.957162065898	28
2	5933	1862.622135842313	27
2	5937	1864.008610729125	28
2	5938	1864.092521080096	27
2	5942	1864.187765701574	28
2	5943	1865.989512974118	27
2	5946	1867.243693044317	26
2	5949	1869.113916366641	25
2	5952	1870.536344457325	24
2	5956	1871.306221021629	25
2	5958	1871.48124930662	26
2	5959	1871.778095847462	25
2	5963	1872.771925026127	26
2	5965	1873.46039824158	27
2	5966	1873.746613821854	26
2	5969	1874.957494845708	25
2	5973	1875.110143767141	26
2	5974	1876.299223220815	25
2	5978	1876.317382757335	26
2	5979	1878.033753006813	25
2	5983	1878.802938261846	26
2	5984	1879.296090945882	25
2	5988	1879.370125286734	26
2	5989	1880.721233101656	25
2	5992	1882.240760200565	24
2	5996	1883.187279692031	25
2	5998	1883.485253330489	26
2	6000	1883.743638759829	27
2	6001	1883.809370943626	26
2	6005	1884.25559484241	27
2	6007	1884.696086427792	28
2	6008	1885.096338114423	27
2	6012	1886.140360665378	28
2	6013	1886.680931432267	27
2	6017	1887.932092612235	28
2	6018	1888.544510297013	27
2	6022	1889.254944768495	28
2	6024	1889.411547439136	29
2	6025	1889.953262985406	28
2	6029	1890.222066766887	29
2	6030	1891.828966140842	28
2	6034	1892.58944294728	29
2	6035	1893.817440709008	28
2	6038	1895.633641445173	27
2	6041	1897.041113351753	26
2	6045	1897.188823629524	27
2	6046	1898.791267428083	26
2	6050	1899.147480565033	27
2	6051	1900.50069822157	26
2	6055	1901.25081198909	27
2	6056	1901.939668616375	26
2	6060	1902.048204742091	27
2	6061	1903.737107327303	26
2	6065	1903.867778789564	27
2	6066	1905.25585521674	26
2	6070	1905.581195150892	27
2	6072	1906.085449468668	28
2	6073	1907.228869509606	27
2	6076	1908.883071080877	26
2	6080	1909.270440136828	27
2	6081	1910.630611010736	26
2	6084	1912.483528139724	25
2	6088	1913.561672985911	26
2	6090	1914.261114546314	27
2	6091	1914.30496808952	26
2	6094	1916.143183409891	25
2	6098	1916.617893698464	26
2	6099	1917.732623834631	25
2	6102	1918.982347741819	24
2	6105	1920.786244086086	23
2	6109	1920.813270337936	24
2	6110	1922.567326117776	23
2	6114	1923.061109745343	24
2	6116	1923.327490952768	25
2	6118	1923.432250087851	26
2	6119	1924.274552752547	25
2	6123	1925.552353838663	26
2	6124	1925.633339839526	25
2	6128	1927.194583818199	26
2	6129	1927.483397869677	25
2	6133	1927.937960314518	26
2	6134	1928.89316378823	25
2	6138	1929.643172136834	26
2	6139	1930.534501723857	25
2	6142	1932.417556162835	24
2	6146	1932.568435382503	25
2	6147	1934.219665880413	24
2	6150	1935.664950667978	23
2	6156	1935.998785845035	24
2	6158	1936.560026200197	25
2	6160	1936.66558674199	26
2	6161	1937.112647637077	25
2	6164	1939.068763990425	24
2	6168	1939.710034264695	25
2	6169	1940.34749529595	24
2	6173	1940.648934066798	25
2	6175	1940.971750054191	26
2	6177	1941.005157493414	27
2	6178	1941.556334733316	26
2	6182	1942.272513004224	27
2	6183	1942.901776724034	26
2	6188	1944.446993718953	25
2	6192	1944.718158040204	26
2	6193	1945.810413048328	25
2	6197	1946.997527398763	26
2	6199	1947.045281319041	27
2	6200	1947.190741922618	26
2	6204	1947.542295101236	27
2	6206	1948.628475823731	28
2	6207	1949.026057060906	27
2	6211	1949.174731567841	28
2	6212	1950.681507218913	27
2	6216	1951.713985231682	28
2	6217	1952.204716184088	27
2	6220	1953.49641652117	26
2	6224	1953.93080090747	27
2	6225	1955.360855963738	26
2	6228	1956.917460750141	25
2	6232	1957.036301474416	26
2	6233	1958.131989740119	25
2	6237	1958.290075611891	26
2	6238	1960.02408155939	25
2	6242	1960.073355928854	26
2	6244	1960.123732168144	27
2	6247	1961.544630293086	26
2	6250	1962.923885646	25
2	6254	1963.448709415529	26
2	6256	1964.730014758568	27
2	6257	1964.782833208985	26
2	6261	1964.911380285026	27
2	6265	1965.044128183178	28
2	6266	1966.708903361022	27
2	6270	1966.793793293355	28
2	6271	1968.434360289111	27
2	6274	1969.855293403848	26
2	6277	1971.327855238042	25
2	6280	1972.991589139684	24
2	6283	1974.536178801863	23
2	6287	1974.912332590332	24
2	6289	1975.172947920098	25
2	6291	1976.085318821603	26
2	6294	1976.440434298015	25
2	6298	1978.090266789564	26
2	6299	1978.26218731357	25
2	6303	1978.308136425045	26
2	6305	1979.011466199534	27
2	6306	1979.641568853615	26
2	6309	1980.976766725538	25
2	6313	1981.447777083743	26
2	6315	1981.696126408188	27
2	6317	1982.211566642729	28
2	6318	1982.84811427938	27
2	6322	1983.085733340165	28
2	6324	1984.193513752762	29
2	6325	1984.272607025227	28
2	6329	1984.414004555091	29
2	6331	1985.660097247372	30
2	6333	1985.738061065304	31
2	6334	1986.117654175034	30
2	6337	1987.507403421311	29
2	6341	1988.514479293683	30
2	6343	1989.018532783808	31
2	6344	1989.079963736518	30
2	6348	1990.012731689678	31
2	6351	1990.948448671124	30
2	6355	1992.331319938542	31
2	6356	1992.662506608388	30
2	6360	1993.363624260131	31
2	6362	1994.014823262055	32
2	6363	1994.096372313148	31
2	6367	1995.282904103591	32
2	6368	1995.483610611132	31
2	6372	1995.923129963685	32
2	6374	1997.306746559502	33
2	6375	1997.355514835476	32
2	6379	1998.091770846072	33
2	6382	1999.210468316547	32
2	6385	2000.819831604607	31
2	6389	2001.233253127434	32
2	6390	2002.251380142293	31
2	6394	2003.242903836406	32
2	6395	2003.537065642051	31
2	6398	2005.058604060769	30
2	6402	2005.294919199645	31
2	6404	2005.351780783415	32
2	6405	2006.999181350045	31
2	6409	2007.825465030894	32
2	6410	2008.375201771692	31
2	6413	2009.651678613857	30
2	6419	2010.946939463769	31
2	6420	2011.034148773835	30
2	6424	2011.605400409864	31
2	6425	2012.703223560289	30
2	6428	2013.906193061084	29
2	6431	2015.749163272515	28
2	6435	2016.544012006702	29
2	6436	2017.289468025699	28
2	6440	2017.683722880639	29
2	6442	2018.747698137016	30
2	6443	2019.062020722314	29
2	6446	2020.347599935069	28
2	6449	2021.824866620547	27
2	6453	2022.046698236234	28
2	6455	2022.228342738512	29
2	6457	2022.460100347683	30
2	6458	2023.388076246998	29
2	6461	2024.774238643705	28
2	6464	2026.205409829601	27
2	6468	2026.62886711305	28
2	6470	2027.42575347324	29
2	6471	2027.435488439075	28
2	6475	2029.023883108223	29
2	6476	2029.039603662401	28
2	6480	2030.565711383127	29
2	6481	2030.566305855572	28
2	6485	2031.488276961224	29
2	6486	2032.327110927276	28
2	6490	2033.280652451901	29
2	6492	2033.637194412934	30
2	6493	2034.169716770857	29
2	6497	2034.602213801773	30
2	6498	2035.753796575501	29
2	6502	2037.143598153898	30
2	6503	2037.209685081526	29
2	6507	2037.508918736153	30
2	6508	2038.659422775082	29
2	6511	2039.999565195948	28
2	6515	2041.234735820622	29
2	6516	2041.80297090812	28
2	6520	2041.964193626114	29
2	6522	2042.215486259961	30
2	6524	2042.951101990662	31
2	6525	2043.540228228554	30
2	6529	2043.882710574819	31
2	6530	2044.940200168364	30
2	6534	2045.875156322728	31
2	6535	2046.592974776872	30
2	6539	2047.405384485575	31
2	6540	2047.883742506713	30
2	6544	2048.302855284698	31
2	6545	2049.634992150873	30
2	6549	2049.921087384906	31
2	6550	2051.423977574617	30
2	6553	2052.731555270315	29
2	6556	2054.325599060864	28
2	6560	2055.595576290295	29
2	6561	2055.647419657097	28
2	6564	2057.595360213988	27
2	6568	2058.076109034588	28
2	6570	2058.792984479639	29
2	6571	2059.08830848942	28
2	6575	2059.321134180386	29
2	6577	2060.835778887178	30
2	6578	2061.020839193188	29
2	6582	2061.290356629177	30
2	6584	2061.897766322413	31
2	6586	2061.932489062176	32
2	6587	2062.238718887516	31
2	6591	2062.661510078837	32
2	6592	2063.490197394141	31
2	6596	2064.252627935795	32
2	6597	2065.460822579921	31
2	6600	2066.680345917591	30
2	6604	2067.744343473209	31
2	6605	2068.429237509617	30
2	6610	2070.149858384678	29
2	6614	2071.03776327239	30
2	6615	2071.891034087637	29
2	6618	2073.352946304628	28
2	6622	2073.766903368008	29
2	6624	2075.081113939851	30
2	6625	2075.089471835182	29
2	6631	2075.643207979378	30
2	6632	2076.388391495408	29
2	6635	2077.873050418222	28
2	6639	2079.045896605713	29
2	6641	2079.616705321944	30
2	6642	2079.779773052694	29
2	6646	2081.175817945924	30
2	6647	2081.460917302878	29
2	6651	2081.529365665921	30
2	6654	2083.190761222602	29
2	6658	2083.745875870482	30
2	6660	2084.000158490258	31
2	6661	2084.542101291292	30
2	6665	2084.94161243806	31
2	6666	2085.913381267995	30
2	6669	2087.430173934721	29
2	6672	2089.174528477625	28
2	6676	2089.804476551778	29
2	6678	2090.370581960107	30
2	6679	2090.899618887627	29
2	6683	2091.751749418813	30
2	6685	2092.111223631268	31
2	6686	2092.143825939582	30
2	6689	2093.361759202839	29
2	6692	2095.228848205605	28
2	6695	2096.42886208287	27
2	6698	2097.817833172628	26
2	6702	2098.07982149195	27
2	6704	2098.349872098139	28
2	6706	2098.475404471479	29
2	6708	2098.861336032126	30
2	6710	2099.437029551109	31
2	6711	2099.547024554671	30
2	6715	2100.073696830348	31
2	6716	2101.449264021875	30
2	6719	2103.141710680449	29
2	6722	2104.481296812655	28
2	6726	2105.666730032959	29
2	6727	2106.318891724856	28
2	6731	2106.748182875418	29
2	6733	2107.202066945416	30
2	6734	2107.739477187493	29
2	6738	2107.892435593367	30
2	6739	2109.628266550326	29
2	6743	2110.35948081121	30
2	6744	2111.039254079485	29
2	6748	2111.406524106163	30
2	6749	2112.997567169094	29
2	6753	2113.698048600021	30
2	6754	2114.870146007189	29
2	6758	2115.928328539085	30
2	6759	2116.172697873884	29
2	6763	2116.694792435558	30
2	6764	2117.65373642324	29
2	6767	2118.862026284919	28
2	6771	2118.938557694588	29
2	6772	2120.167897853539	28
2	6776	2120.17663050348	29
2	6778	2121.246031625368	30
2	6779	2121.460705204033	29
2	6783	2122.761987787622	30
2	6784	2123.115012953714	29
2	6788	2124.671344277237	30
2	6789	2124.911783680976	29
2	6793	2124.922159666286	30
2	6795	2125.265038613007	31
2	6797	2126.284726026441	32
2	6798	2126.595172449858	31
2	6802	2126.76413403891	32
2	6803	2127.92577691088	31
2	6807	2128.150044640018	32
2	6808	2129.359772629203	31
2	6811	2130.759352718392	30
2	6815	2130.937356221479	31
2	6816	2132.639314128557	30
2	6820	2132.71206322061	31
2	6822	2132.793083587969	32
2	6823	2134.363099778915	31
2	6826	2135.834889912704	30
2	6830	2135.991373911663	31
2	6832	2135.991576100188	32
2	6833	2137.576271075482	31
2	6836	2139.306998797046	30
2	6839	2141.211808634462	29
2	6843	2141.609826732224	30
2	6844	2142.485662748764	29
2	6848	2142.529571204158	30
2	6850	2143.018649958386	31
2	6851	2144.231700827467	30
2	6855	2144.309413249959	31
2	6857	2144.900926443928	32
2	6859	2145.21443195935	33
2	6860	2145.632939914527	32
2	6864	2146.784139735267	33
2	6865	2146.962260198506	32
2	6869	2147.16235742886	33
2	6870	2148.831460008683	32
2	6874	2148.841796079114	33
2	6875	2150.344923128845	32
2	6879	2151.596794560665	33
2	6880	2151.829384381795	32
2	6883	2153.581421107338	31
2	6887	2153.690325627504	32
2	6888	2155.351146317744	31
2	6892	2156.135862369748	32
2	6894	2156.16185340123	33
2	6895	2157.010431300947	32
2	6899	2158.517169468399	33
2	6900	2158.91707495349	32
2	6903	2160.630646671453	31
2	6907	2161.862422653319	32
2	6909	2162.01854147373	33
2	6910	2162.165479314239	32
2	6914	2162.51903733627	33
2	6916	2163.512556401867	34
2	6917	2164.140775703551	33
2	6921	2164.831961500316	34
2	6923	2165.459986031431	35
2	6924	2165.616656538943	34
2	6928	2166.475660864199	35
2	6930	2166.669699812815	36
2	6931	2167.239734269032	35
2	6935	2167.394474042749	36
2	6936	2169.113241916248	35
2	6940	2170.863074967001	36
2	6941	2171.011992660263	35
2	6945	2171.495292707413	36
2	6946	2172.849498758191	35
2	6949	2174.720570577221	34
2	6953	2175.387091808093	35
2	6954	2176.048227254214	34
2	6957	2177.648926409247	33
2	6961	2178.090649276593	34
2	6962	2179.384689923661	33
2	6965	2181.130437031673	32
2	6968	2183.029837223613	31
2	6972	2183.540557644109	32
2	6974	2183.691174056872	33
2	6975	2184.256596052558	32
2	6979	2184.767178863256	33
2	6981	2184.984490065633	34
2	6982	2185.813501821183	33
2	6985	2187.402746345759	32
2	6989	2187.853037011319	33
2	6991	2188.036330124059	34
2	6993	2188.090171909181	35
2	6994	2188.844805723899	34
2	6998	2188.979552367943	35
2	6999	2190.753791657747	34
2	7003	2191.116091275672	35
2	7005	2191.153383064295	36
2	7007	2191.506921305139	37
2	7009	2191.869632738121	38
2	7010	2192.321135029667	37
2	7014	2192.361957667022	38
2	7015	2193.966537693427	37
2	7019	2194.88019990255	38
2	7020	2195.176010121503	37
2	7024	2196.245875390237	38
2	7025	2196.738383604125	37
2	7029	2197.838079172891	38
2	7030	2198.723333654092	37
2	7034	2198.743365952241	38
2	7036	2199.685633677038	39
2	7037	2200.721984001161	38
2	7041	2201.346916318979	39
2	7042	2202.188228106224	38
2	7046	2202.95981581023	39
2	7048	2203.090233432548	40
2	7049	2203.658068779209	39
2	7052	2205.520737423101	38
2	7056	2206.090233186916	39
2	7057	2206.86299454412	38
2	7061	2208.601435891245	39
2	7062	2208.676805215241	38
2	7066	2209.641497237537	39
2	7067	2210.173611750552	38
2	7070	2211.847952390933	37
2	7074	2212.775103166693	38
2	7075	2213.818079050915	37
2	7079	2214.83253325268	38
2	7080	2215.108083698997	37
2	7083	2216.832114389823	36
2	7087	2217.346265975365	37
2	7089	2218.474764478119	38
2	7090	2218.670240312168	37
2	7094	2219.945426221907	38
2	7095	2220.664573149854	37
2	7099	2222.389235938813	38
2	7100	2222.622084297524	37
2	7104	2223.567872923928	38
2	7105	2224.600655868002	37
2	7109	2226.082095885692	38
2	7110	2226.157195430533	37
2	7114	2226.205527526688	38
2	7116	2227.422167389674	39
2	7117	2228.081458359123	38
2	7121	2229.077591384156	39
2	7123	2229.116906564866	40
2	7124	2229.404703097143	39
2	7128	2230.544396115771	40
2	7129	2230.916022104495	39
2	7133	2231.221913043467	40
2	7134	2232.710023073205	39
2	7137	2233.998222514526	38
2	7141	2234.044421134943	39
2	7142	2235.693737956048	38
2	7146	2236.10858187309	39
2	7147	2237.199390262277	38
2	7151	2237.57663390179	39
2	7152	2238.764191571907	38
2	7156	2240.216290105271	39
2	7157	2240.338648197525	38
2	7161	2240.931663227385	39
2	7162	2241.763836383545	38
2	7165	2243.356727285409	37
2	7170	2244.892477033944	36
2	7174	2245.047288446317	37
2	7175	2246.518842792236	36
2	7178	2247.924110999615	35
2	7182	2248.07139119582	36
2	7184	2248.48879359866	37
2	7186	2248.866456498819	38
2	7188	2249.098408776499	39
2	7189	2249.497978193597	38
2	7193	2250.20731350396	39
2	7194	2250.876611924642	38
2	7198	2251.451517724381	39
2	7200	2251.458165356649	40
2	7201	2252.15257257531	39
2	7204	2253.909317392768	38
2	7207	2255.859702031599	37
2	7211	2255.928157595937	38
2	7213	2256.11676378164	39
2	7214	2257.305216415139	38
2	7217	2259.224191944959	37
2	7221	2259.792437305828	38
2	7223	2260.043251617906	39
2	7224	2260.646202016162	38
2	7228	2261.044068928979	39
2	7230	2261.37437048977	40
2	7231	2262.199513670342	39
2	7235	2262.447148916726	40
2	7237	2262.912315658354	41
2	7238	2263.441224861989	40
2	7241	2264.759488470393	39
2	7245	2264.966906008255	40
2	7247	2265.606695859148	41
2	7249	2265.607204003124	42
2	7250	2266.135196315224	41
2	7254	2266.945053569814	42
2	7255	2267.520078291657	41
2	7258	2268.874785611319	40
2	7261	2270.444911445777	39
2	7265	2270.627010440566	40
2	7266	2271.689254593018	39
2	7270	2271.955219962711	40
2	7272	2272.358162413722	41
2	7274	2272.399744971185	42
2	7275	2272.946460708331	41
2	7279	2273.792082797049	42
2	7280	2274.212930238906	41
2	7284	2274.42138921477	42
2	7288	2275.037213639599	43
2	7289	2275.810090995494	42
2	7293	2276.002715885456	43
2	7295	2276.744282358597	44
2	7296	2277.513718295384	43
2	7300	2278.503559904084	44
2	7301	2278.758306270938	43
2	7305	2279.214913703481	44
2	7306	2279.990359151091	43
2	7309	2281.233084311809	42
2	7313	2281.782501082619	43
2	7314	2283.103666064243	42
2	7318	2283.67385944585	43
2	7320	2284.169257482907	44
2	7321	2284.343089143845	43
2	7327	2285.738017286929	44
2	7328	2285.790833814355	43
2	7332	2286.269368314696	44
2	7333	2287.469157448883	43
2	7337	2287.963316695538	44
2	7339	2289.068720811743	45
2	7340	2289.321992945584	44
2	7344	2289.346002837784	45
2	7346	2289.88587056752	46
2	7348	2290.296682018711	47
2	7349	2290.748665677855	46
2	7353	2291.276319651518	47
2	7354	2292.411606452899	46
2	7358	2292.432104498112	47
2	7359	2294.127558918023	46
2	7363	2294.44733973325	47
2	7365	2295.522757061307	48
2	7366	2295.710058183694	47
2	7369	2297.508935249509	46
2	7373	2297.652423985884	47
2	7375	2297.799719164135	48
2	7376	2298.742029362829	47
2	7380	2299.058772235679	48
2	7382	2299.866165006073	49
2	7383	2300.416989846812	48
2	7386	2302.154514960484	47
2	7390	2302.208809147431	48
2	7391	2303.905413200991	47
2	7395	2304.027816466897	48
2	7396	2305.755294645676	47
2	7399	2307.057289934443	46
2	7403	2308.36405573215	47
2	7404	2308.50531996368	46
2	7408	2308.657174961982	47
2	7410	2309.472921485668	48
2	7412	2309.945821115493	49
2	7413	2310.164019382471	48
2	7416	2311.774973776849	47
2	7420	2312.263582600688	48
2	7421	2313.302814303251	47
2	7427	2313.591868793818	48
2	7428	2314.713053161191	47
2	7432	2315.515328648646	48
2	7433	2316.604753210494	47
2	7436	2318.407849505642	46
2	7440	2319.414049029606	47
[...]
5	84346	26311.254706233871	3080.1875517735
5	84392	26323.552218449433	767.12839102303
5	84395	26325.043394223359	766.06735558661
5	84403	26328.67823443966	1153.4838699882
5	84461	26347.821076729837	4528.9442830509
5	84496	26359.50227732336	6773.8561912109
5	84523	26368.006381270604	388.11489316559
5	84549	26378.881837801576	1149.8938268893
5	84554	26380.580333566979	1926.690690113
5	84569	26385.727350225799	1545.3995181908
5	84589	26392.104114543029	771.01373604875
5	84601	26395.069314013177	772.66287705243
5	84613	26398.210870809981	390.51299863882
5	84621	26401.832221416325	385.454126467
5	84644	26409.526783977017	3072.1047241095
5	84663	26414.374022342392	1146.4730640932
5	84715	26430.783880039804	4152.2513397779
5	84727	26433.835225815453	768.9839521448
5	84734	26435.071941221074	769.58683961618
5	84754	26442.301345914731	1935.0432352157
5	84757	26443.753907488788	379.46739073575
5	84782	26451.72129857851	776.82231315862
5	84805	26459.414628683719	1542.7155331662
5	84828	26467.534502256979	3062.3145150023
5	84881	26482.931127957758	379.55271155785
5	84907	26492.929160522242	6184.7259523127
5	84927	26499.032474296672	768.14602805635
5	84937	26502.304009405283	1147.4755750776
5	84952	26507.618727713769	772.12407680387
5	85047	26538.543220194189	1151.460236888
5	85064	26543.041548529027	1154.2276120447
5	85067	26544.410924392512	1541.8794028225
5	85094	26552.566773212087	2332.1901881847
5	85132	26561.505549050812	757.77450476232
5	85135	26563.232228968609	366.22481901114
5	85146	26567.89289989205	5301.2598432276
5	85151	26569.113595771919	369.84298837775
5	85203	26584.648535898457	2338.8238353235
5	85206	26586.143128098304	1138.883062204
5	85209	26587.596287255118	361.8637673036
5	85219	26590.995082574094	2313.242311941
5	85263	26606.74801899487	1526.742118508
5	85266	26608.193865309039	4915.440702606
5	85274	26611.557210173959	357.41461078988
5	85288	26614.326081391925	1519.6515370642
5	85298	26617.240676300729	2316.7324255875
5	85339	26628.351732668968	357.31262154291
5	85359	26634.853273192922	2324.2569410081
5	85373	26641.244489393698	755.70747258222
5	85379	26644.342787086719	748.28114009679
5	85437	26660.04332515964	1922.081538409
5	85459	26666.159229660908	1916.5511223522
5	85511	26681.861753643246	2686.1805680423
5	85518	26683.758767727891	8827.2135522356
5	85528	26686.445184066089	4517.8322202455
5	85582	26701.375688948984	734.14190450885
5	85585	26702.677112045827	1505.1286499601
5	85624	26714.059367378372	347.64452532411
5	85656	26723.746349718364	1498.7468471373
5	85674	26729.829389407056	5585.4320706068
5	85682	26733.24738631727	1891.9338623273
5	85711	26744.049817738252	347.48862650205
5	85742	26752.320557760018	4876.3228578625
5	85769	26761.144990761894	4518.9046383931
5	85803	26774.274482967835	735.27025171359
5	85887	26797.334724185931	352.30742893825
5	85919	26806.850681482569	5942.7513530411
5	85937	26813.795743162126	3419.0610433267
5	85954	26818.013559193291	346.8185332605
5	85987	26828.753526473545	735.44621106283
5	86030	26842.793415386728	2649.8491944657
5	86049	26847.737157834634	1495.4491290219
5	86097	26865.886112867981	2654.2683922871
5	86188	26889.972227118848	348.36018066991
5	86210	26896.200944840846	347.51232880066
5	86263	26913.935731882726	353.15231063817
5	86283	26920.535511845102	1495.8730478719
5	86289	26923.618055711438	3056.3304219239
5	86305	26930.57728594554	4537.1102670995
5	86312	26932.285237041427	1494.1979613633
5	86317	26933.592448103367	718.34409026854
5	86329	26936.919184245109	353.67192053222
5	86341	26940.482162065557	1876.8888203838
5	86349	26944.154403242221	710.41760864443
5	86374	26952.201846172784	713.99620188909
5	86396	26958.345103188541	344.94200684687
5	86405	26962.379435255129	5972.0514694003
5	86408	26963.742823514093	345.98004265255
5	86447	26975.050203041296	350.08008636056
5	86464	26979.315179195378	708.16616788552
5	86475	26980.609527444031	3047.5102184032
5	86483	26984.222792056885	348.66572611586
5	86495	26987.405131444272	341.1046802844
5	86501	26990.543417287555	1883.0546628475
5	86511	26993.89312163138	2274.6580106667
5	86516	26995.296347396198	4168.9625796078
5	86580	27014.345961814682	711.74985287947
5	86588	27017.419796173956	1866.5339723005
5	86673	27045.375875476871	1473.2395994867
5	86678	27046.884638178658	6292.4771973156
5	86697	27056.024815969852	1475.7089550416
5	86714	27060.182569277783	1085.9141356516
5	86790	27082.286189947028	4857.5415394188
5	86795	27084.126779700566	5583.8790536601
5	86840	27098.55500234713	703.21095604428
5	86892	27114.79767317244	704.73384030286
5	87062	27165.149336365174	1093.8971537182
5	87065	27166.441582872096	4517.3807159804
5	87076	27171.190232178133	1089.1834125421
5	87093	27176.389219683159	703.91857966475
5	87096	27178.167325374048	2249.2890532643
5	87136	27191.440285200935	3771.0668270585
5	87146	27194.553545536969	4850.9495346008
5	87172	27200.231512329851	355.65108759276
5	87211	27212.543556464029	4509.3476435844
5	87216	27214.341546085787	1081.7324622011
5	87221	27215.996791836557	4504.8951606285
5	87266	27230.628991348791	356.07832104254
5	87285	27235.773533728282	1084.2929558139
5	87305	27243.021410220425	708.02380377513
5	87330	27250.752763356949	5624.4604226728
5	87354	27256.549892450618	1485.0118299794
5	87368	27260.219786684709	360.08237005396
5	87371	27261.460299967165	3796.5693415805
5	87376	27263.064813646982	3796.4936202782
5	87391	27267.825845732661	2650.7137033748
5	87414	27276.359586261334	1860.916551397
5	87435	27284.59906350554	354.62497098754
5	87459	27290.61583077957	354.20559547928
5	87471	27294.197772119875	712.13849412818
5	87493	27304.190966951782	1455.2684146618
5	87522	27311.712461335706	1840.8775769995
5	87527	27313.118759882758	3021.2992715377
5	87549	27318.959865228954	1445.3664627646
5	87584	27329.624526547949	353.07061989581
5	87607	27337.020769322786	351.29136895983
5	87621	27340.556768946845	1843.7636201482
5	87636	27345.662807939697	1059.7776549612
5	87644	27348.947528000485	349.59233296871
5	87647	27350.509633360553	1449.2494236654
5	87650	27352.019151541341	696.07732642409
5	87660	27355.109582964826	7256.7623494069
5	87663	27356.813655462239	6329.4327194264
5	87774	27389.089378443484	3760.7147945764
5	87781	27390.516583281507	349.71019885165
5	87830	27404.45126004213	2210.0140894347
5	87931	27433.482920554407	2202.0214595357
5	87939	27436.333087896682	1051.7036743464
5	87944	27437.645560398638	4487.1096655701
5	87989	27452.413964109062	705.22419898332
5	87996	27454.245439707613	3761.5314500252
5	88001	27456.027224664702	1053.1583177827
5	88045	27469.282241078591	709.29631522989
5	88055	27472.418876833221	351.16513170335
5	88072	27477.643416302217	1060.2135562392
5	88089	27482.791666251732	1830.93582108
5	88094	27484.251662254086	5947.2536398233
5	88131	27495.944769739299	710.37301102484
5	88161	27505.865627133601	1457.518209773
5	88202	27520.980772403012	4875.7953264945
5	88215	27525.690878141056	713.42089757694
5	88246	27534.616188926006	1444.65588713
5	88297	27548.993417469913	708.73958238936
5	88362	27570.684391673223	357.51846069237
5	88375	27575.356452299037	1833.5784254041
5	88380	27577.097872631566	4123.3743230054
5	88397	27581.625396007986	708.48226406592
5	88461	27604.035957530084	1064.9868747173
5	88561	27633.149627105649	2213.5441046449
5	88608	27648.483094128538	1433.0495413123
5	88620	27652.048178277482	2585.2034710021
5	88670	27667.099527275135	698.87475876655
5	88685	27672.101233729852	1407.337022598
5	88699	27675.285092557726	1409.6561549885
5	88727	27683.870863593687	345.31924495581
5	88734	27685.805295775589	347.19833715353
5	88747	27690.245802774969	1414.193468803
5	88757	27693.620209314245	699.49008945021
5	88770	27698.645398212913	344.08830749056
5	88791	27705.855095650013	344.35324852404
5	88803	27708.504189889635	696.58014886411
5	88825	27714.94371945219	696.21751425347
5	88862	27725.426016812529	1791.6331673475
5	88877	27730.775456832106	6306.7852814318
5	88892	27735.32707795495	1049.8913750871
5	88927	27747.600104245672	695.32594903056
5	88930	27749.493307176733	1789.3981893311
5	88940	27752.575064170489	1054.0215821462
5	88958	27758.976291850151	1057.6867454372
5	88961	27760.33299290681	699.88721193403
5	89039	27782.471923883946	2563.9575430718
5	89117	27805.74584487559	4854.1212011017
5	89132	27810.346421128267	354.65272730041
5	89164	27819.562016018794	356.86625109645
5	89182	27826.111903801873	708.5596024249
5	89191	27827.81251012621	357.23557197987
5	89196	27829.782206221796	358.55185097099
5	89333	27868.939064115227	3373.1603841399
5	89336	27870.399898585432	1076.0359505922
5	89351	27875.004491579102	717.71142456747
5	89369	27881.325086298526	2210.9776627703
5	89392	27889.479593957529	716.58843261562
5	89427	27901.795075201557	2576.392072676
5	89432	27903.647978569322	2194.7976912979
5	89466	27913.718463144021	715.12891891383
5	89504	27926.077891300189	2196.4852915272
5	89530	27931.827681078705	2199.3010939195
5	89540	27935.38859174693	1798.4353465446
5	89550	27938.649484139439	358.2337803805
5	89572	27945.496788752024	2951.7962306857
5	89636	27964.67780257402	3748.8244964493
5	89701	27982.478136428017	1429.6830542855
5	89704	27984.415548467021	718.16570667283
5	89714	27987.530775043126	2968.436510651
5	89717	27989.089228521976	1805.2083716329
5	89725	27992.252410635668	2200.0296736574
5	89728	27994.208094207886	1435.0188328606
5	89747	28001.963990067448	3759.6477535048
5	89777	28011.682197420615	1075.0863647947
5	89806	28019.01749229798	1414.6100302571
5	89811	28020.52890797289	710.63850562434
5	89837	28026.954890459719	365.86251097897
5	89840	28028.255676439906	713.65891659378
5	89850	28031.471747117246	1775.7335939977
5	89853	28032.90101304775	361.33908120289
5	89856	28034.201892817336	362.4714679127
5	89872	28041.256123327594	1068.5737167323
5	89897	28048.752479265761	3747.6080502402
5	89902	28050.63611578228	7058.6392869789
5	89911	28054.475834067669	5976.6764402215
5	89926	28059.60888656931	365.43060537832
5	89929	28061.470989425983	1064.0976807634
5	89936	28063.220679393727	2546.0086950817
5	89945	28067.787012461517	2930.1834922776
5	90000	28082.059635065255	5590.578007964
5	90010	28085.381487414372	6289.2108038811
5	90099	28112.289522344751	360.35832215805
5	90125	28118.963854946514	713.30230675715
5	90133	28122.084074186851	1414.3431811015
5	90148	28126.621949858909	1768.2843575155
5	90153	28128.340559409318	713.72634716801
5	90237	28152.507621499282	366.42212791453
5	90264	28160.063603119683	721.62070228397
5	90293	28168.089142835084	1070.064404752
5	90301	28171.610634627882	2549.5803320298
5	90361	28191.543178646397	370.50433169501
5	90376	28196.192485513855	732.86843141721
5	90386	28199.628798366096	369.9480929143
5	90393	28201.132990036663	370.21071933212
5	90406	28205.654261040073	1792.8475819385
5	90426	28212.586078734267	375.20535382559
5	90463	28223.82206878433	1805.7818154062
5	90471	28227.089620145913	1807.8139131253
5	90548	28250.49671713667	1816.3260001695
5	90697	28295.249295042773	3736.7878898265
5	90707	28298.592270761301	741.24795220122
5	90746	28309.680630771203	381.91864362182
5	90751	28311.000610707274	2579.9465268078
5	90754	28312.244495456985	382.79450617099
5	90764	28314.896868891215	383.64678833305
5	90777	28319.336216221696	2578.9773403723
5	90852	28340.238859243638	384.58089672646
5	90855	28341.65324659603	1810.0237411677
5	90860	28343.421176392532	1100.3925247973
5	90892	28353.098401475458	386.86496367154
5	90907	28358.635389106109	390.39440503627
5	90918	28363.173403421736	391.29356753268
5	90923	28364.882534527539	391.83944620232
5	90935	28368.640221526606	2599.6928888461
5	90938	28369.966953468828	395.64350271529
5	90965	28377.749393006919	759.00951942659
5	90972	28379.526405799521	1825.6965892636
5	90980	28382.272296350582	386.49569338882
5	90993	28387.593960411421	3364.4071943105
5	91023	28397.44878962165	381.58021272932
5	91068	28412.406601074285	4129.749304525
5	91073	28413.995682900905	754.93744457226
5	91119	28426.86362793608	1452.5845003145
5	91127	28430.415643178247	1806.895919211
5	91164	28441.681607205182	748.72174984247
5	91167	28443.591275246016	2149.2167551631
5	91186	28448.603013309038	4866.1023009593
5	91201	28453.284485875203	376.24258147079
5	91212	28457.641019120572	1790.2063224801
5	91224	28461.405483826382	1791.3069164828
5	91321	28489.846955884942	380.85699393721
5	91336	28494.487066014991	8653.5953365522
5	91347	28498.653440044024	2921.4377253665
5	91389	28510.638324785182	383.74290121249
5	91397	28514.401104681889	741.84596199515
5	91408	28519.771120963009	1810.1398215495
5	91411	28521.654120781409	1810.5415450188
5	91447	28531.069527121211	1456.8813296818
5	91489	28543.671028491059	1824.2881173844
5	91503	28547.271114357883	5970.2918798324
5	91535	28557.789527061717	2937.6306267272
5	91559	28563.458159555444	1118.7496878965
5	91584	28571.160098179379	2176.8581955804
5	91592	28574.73978079217	1121.7695871182
5	91598	28577.724685882912	1120.4994645857
5	91614	28580.989233044483	3335.091342866
5	91713	28607.730318056368	391.07679397966
5	91746	28618.083905602195	387.98904236422
5	91764	28623.19361941418	5627.5358862774
5	91794	28632.91132056596	1138.8274118307
5	91844	28648.257361003889	774.19085760486
5	91889	28662.24185541453	1501.4851342983
5	91950	28680.059611842167	1138.609323175
5	91960	28682.661883953345	1498.6036781434
5	92076	28719.499450191801	397.02560338567
5	92094	28726.093984328155	786.34472140143
5	92097	28727.964097517301	1855.5189411179
5	92110	28733.882819046024	4139.9152455155
5	92140	28739.514898014385	3363.950973672
5	92143	28741.31091858441	1864.9861103318
5	92151	28743.822976646144	2985.9164285169
5	92212	28760.779835473502	398.80130746358
5	92268	28776.998447383882	1158.8589595789
5	92297	28785.691439756693	780.03442498607
5	92300	28787.456782078871	1148.8917678879
5	92305	28789.36997688947	4925.9744334289
5	92312	28791.331847530918	397.12484036147
5	92363	28809.244800934696	1157.3316321421
5	92368	28811.051570024097	4908.5508214492
5	92381	28816.043378099928	399.29647310191
5	92416	28827.218004657829	785.69168245165
5	92438	28833.748166938814	400.29410421874
5	92451	28838.13111639669	776.23322335545
5	92454	28839.782894025313	400.34971161102
5	92464	28843.006722692902	3342.2171580235
5	92561	28873.645848217736	1496.0468859162
5	92564	28874.973545751291	1149.1666247254
5	92574	28878.634595243762	2943.4114721981
5	92626	28895.416435200293	3329.5240116587
5	92631	28896.996036040355	1500.1893566531
5	92634	28898.958649256025	404.909151841
5	92647	28903.756116712225	1149.630064732
5	92811	28951.668938372788	403.30338471609
5	92829	28957.805515166131	405.94460534845
5	92842	28962.009161648845	2572.4845914932
5	92904	28980.324261581098	1877.8356249304
5	92923	28985.355406999347	400.8488501316
5	92938	28989.845126366002	1169.5494158897
5	92956	28996.708824750913	405.14157068348
5	92967	29001.452252371555	1167.8281628684
5	92998	29009.856127298382	1173.1179499734
5	93005	29011.066044770312	1536.6544177168
5	93010	29012.816256597583	796.81275902759
5	93057	29027.014992082808	408.28480020687
5	93119	29046.664528915788	1548.6493438122
5	93157	29058.584265374335	5322.9936531378
5	93220	29076.582175368758	404.9501839259
5	93227	29078.072672552185	5328.6218715518
5	93239	29081.996828445176	1550.223319593
5	93256	29086.613322606998	1190.4775326925
5	93276	29096.868141851331	1191.255667978
5	93289	29101.274300344417	1192.1828900475
5	93318	29110.106643963361	3388.8782987835
5	93328	29113.152321027534	1912.8378346276
5	93404	29135.139142037498	808.77388356223
5	93420	29138.315633628832	807.69834780315
5	93493	29161.267378349915	810.97467706092
5	93533	29174.368746760614	1205.5876807304
5	93577	29187.190333861612	1924.6110211981
5	93580	29188.751843272835	414.04425827811
5	93655	29212.594964022501	2633.7122184317
5	93672	29216.841455911226	2278.1149474408
5	93682	29220.544124246514	811.38209110989
5	93703	29228.612953999391	1912.8314406956
5	93708	29230.041501036411	2610.2708432179
5	93726	29236.588616423806	407.00808938636
5	93827	29265.070865939309	798.98978421971
5	93835	29268.343189646427	799.49631670553
5	93857	29274.897270191398	399.40489223587
5	93860	29276.748927366484	1182.4234567153
5	93868	29279.687479282666	398.52396557545
5	93878	29282.535337354552	2599.6199290938
5	93915	29293.67159978294	1902.7890374277
5	93933	29300.168365311559	1899.5940052627
5	94055	29334.205006552423	797.86358622538
5	94070	29339.005141934315	1191.0166795006
5	94086	29345.868755031125	1561.2733529626
5	94099	29350.774255099268	403.88797793593
5	94123	29357.890814374881	806.40305771099
5	94129	29360.541859755972	1198.6142295679
5	94134	29362.243842625366	1925.4216291888
5	94147	29366.610177286648	1201.4659622565
5	94202	29382.26382864167	401.27031419683
5	94261	29400.541977113421	397.71109611891
5	94266	29402.487421060103	2645.6082565797
5	94282	29409.602728580991	400.08855198585
5	94311	29418.541069767001	2653.7200862626
5	94331	29425.134693699452	403.03447961278
5	94363	29437.889029798406	404.80887062555
5	94371	29441.159677241492	1949.8614612205
5	94393	29447.039388680208	407.38032848822
5	94398	29448.771826832491	816.91430070262
5	94403	29450.043072185042	1210.1961979269
5	94408	29451.307164546597	3019.959623409
5	94466	29466.873708333571	1206.8294995201
5	94476	29470.23577279554	1593.6455406873
5	94482	29472.727781408962	4184.2718002289
5	94528	29484.152036473838	403.15167821706
5	94536	29487.653457020906	405.54784405168
5	94549	29492.624240232011	815.93943488651
5	94552	29494.484754311232	1594.9962524427
5	94582	29504.519471354348	2314.7844229921
5	94589	29506.360317465042	4951.9395691847
5	94592	29508.157700274264	1211.6182653763
5	94669	29534.549152729227	1218.0872966439
5	94686	29539.711119501976	2315.2192700988
5	94694	29543.279988458132	1601.8382899328
5	94730	29553.582523884935	2319.2454349488
5	94735	29555.241843042647	406.30140399945
5	94759	29561.183232297315	817.33343173571
5	94798	29572.792790735639	3418.8956745435
5	94816	29578.779233455412	2687.7657644851
5	94891	29604.653440692401	1225.803929731
5	94915	29610.797511568232	1605.8946535203
5	94973	29630.934859070306	1604.7168496999
5	94985	29633.970587104124	3393.8368841703
5	95091	29664.601144285997	1206.27119272
5	95120	29672.235395281327	4514.5589956942
5	95152	29682.306092910965	6071.4024950395
5	95172	29689.617100168702	1956.8379571158
5	95197	29696.926927820531	1210.6895279055
5	95200	29698.282939249401	1961.2581777559
5	95255	29716.436412410189	1590.7026564035
5	95288	29727.798857129861	410.11401441853
5	95295	29729.476736040909	806.88068140214
5	95306	29734.33143994895	6434.9844103183
5	95328	29740.97085630012	811.585116325
5	95365	29752.711332720082	1214.4828069915
5	95399	29765.250567787822	410.20501216066
5	95404	29767.00628579979	1219.915380239
5	95419	29770.984520105768	808.30366911518
5	95426	29772.952059371706	1608.7760689537
5	95453	29780.628515960585	809.22027907355
5	95477	29788.749549532804	406.81030393383
5	95483	29791.798783709604	1616.9165432597
5	95501	29795.317053579662	1989.5646363654
5	95548	29807.878015077051	1218.834894902
5	95601	29827.194991189178	813.62177277657
5	95613	29830.437869943987	1222.8292007113
5	95626	29835.808427257399	813.37189362039
5	95631	29837.368956797133	2357.4753716196
5	95671	29850.085287790493	3809.1621591788
5	95677	29853.018993940511	816.3298375793
5	95729	29869.119227096373	3082.0294694185
5	95795	29887.293172732675	405.95471182143
5	95806	29891.813540323572	409.94119234724
5	95861	29911.163041723828	3808.6131047279
5	95878	29916.234670051123	1212.8873001969
5	95889	29920.743629836227	793.95770778606
5	95915	29929.458286214556	801.2290140331
5	95975	29944.789159600374	395.94212879907
5	95989	29950.607851251525	397.93112651486
5	96017	29956.674988453587	1218.8754520282
5	96028	29961.851903224302	2722.3605982264
5	96033	29963.845135508602	1620.1888616579
5	96066	29974.441917106261	2367.4763296701
5	96071	29976.133339682532	6148.0008424783
5	96096	29984.947467416649	2729.8793696018
5	96121	29992.753409727414	2737.0214449992
6	318	99.844095653001	81.63384972496
6	578	182.452571112556	151.00617145454
6	609	193.409390915265	114.55742698194

