version 2
run Third_exit_9-16-20191017-13:44:33-2072
attr configname Third_exit_9
attr datetime 20191017-13:44:33
attr experiment Third_exit_9
attr inifile omnetpp.ini
attr iterationvars ""
attr iterationvarsf ""
attr measurement ""
attr network ResponseTimeNetwork
attr processid 2072
attr repetition 16
attr replication #16
attr resultdir results
attr runnumber 16
attr seedset 16
param **.Source.interArrivalTime exponential(6s)
param **.jobPriority bernoulli(0.8)
param **.PS.serviceTimeU1 "uniform(1.2s, 2.0s)"
param **.PS.serviceTimeU2 "uniform(2.4s, 2.8s)"
param **.SS1.serviceTime exponential(1.4s)
param **.SS2.serviceTime exponential(2s)
param **.PS.exitProbability bernoulli(0.9)

vector 0 ResponseTimeNetwork.SS1 queueLength:vector ETV
attr interpolationmode sample-hold
attr title "queue length, vector"
vector 1 ResponseTimeNetwork.SS2 queueLength:vector ETV
attr interpolationmode sample-hold
attr title "queue length, vector"
vector 2 ResponseTimeNetwork.QueueU1 queueLength:vector ETV
attr interpolationmode sample-hold
attr title "queue length, vector"
vector 3 ResponseTimeNetwork.QueueU2 queueLength:vector ETV
attr interpolationmode sample-hold
attr title "queue length, vector"
vector 4 ResponseTimeNetwork.sink lifeTimeU1:vector ETV
attr interpolationmode none
attr title "lifetime of arrived jobs U1, vector"
attr unit s
vector 5 ResponseTimeNetwork.sink lifeTime:vector ETV
attr interpolationmode none
attr title "lifetime of arrived jobs, vector"
attr unit s
2	0	0	0
2	10	3.889132733227	1
2	11	4.513854376612	0
2	15	4.788453472703	1
2	17	4.867241126864	2
2	18	5.836978588639	1
2	21	7.093238479657	0
2	25	8.649013306571	1
2	26	9.046047167493	0
2	30	10.268589324029	1
2	32	10.382271766322	2
2	33	10.382865057712	1
2	37	11.790946924273	2
2	38	12.034012843122	1
2	42	12.178282208608	2
2	44	12.664661865557	3
2	46	12.826021526848	4
2	47	13.515655966488	3
2	51	14.389415489316	4
2	52	14.786648886849	3
2	56	15.302385674197	4
2	57	16.34410989323	3
2	61	16.524475322432	4
2	62	17.860138133739	3
2	65	19.215830458526	2
2	69	19.665336290921	3
2	71	20.27380811495	4
2	72	20.793445912946	3
2	76	20.855294191708	4
2	78	21.116254224904	5
2	79	22.040735519689	4
2	82	23.854487857607	3
2	86	24.04536801479	4
2	88	25.021065058858	5
2	89	25.686846869823	4
2	93	26.530679978916	5
2	94	27.414619538758	4
2	98	27.491300802297	5
2	99	28.691794046026	4
2	103	29.492987212366	5
2	105	30.239196478957	6
2	106	30.246474810887	5
2	110	31.761177091235	6
2	111	32.234750231739	5
2	114	33.645413820643	4
2	118	34.083470643197	5
2	120	34.820148486746	6
2	121	34.854596968379	5
2	125	35.248037003223	6
2	126	36.707510829356	5
2	130	36.918079561801	6
2	131	38.539008877252	5
2	135	38.782652406675	6
2	136	40.011548290414	5
2	140	40.055763291317	6
2	142	40.381492932064	7
2	143	41.319156755892	6
2	147	41.384461399821	7
2	148	43.300638967206	6
2	152	43.339284773657	7
2	153	44.785764898	6
2	157	45.339717352506	7
2	158	46.011430961093	6
2	162	46.533093041913	7
2	164	46.682559328308	8
2	166	47.378283339295	9
2	167	47.395755270882	8
2	171	48.527071064569	9
2	172	48.931838115877	8
2	176	50.661259838341	9
2	177	50.703645841232	8
2	180	52.703098169169	7
2	185	54.247622309266	6
2	188	55.485828785612	5
2	191	57.272054224289	4
2	195	57.321874334013	5
2	196	59.012587379864	4
2	200	59.047080441102	5
2	202	60.218864428925	6
2	203	60.425059698908	5
2	207	61.483658605014	6
2	209	61.834574052829	7
2	210	62.28293568605	6
2	214	63.090302843326	7
2	215	63.573212105794	6
2	219	64.390359840442	7
2	220	65.567244995771	6
2	224	66.179123534121	7
2	226	66.418375056863	8
2	227	67.082338853752	7
2	231	67.355462283866	8
2	232	68.405095405331	7
2	236	68.553493315916	8
2	237	70.194660647227	7
2	241	70.949243987561	8
2	243	71.039722292533	9
2	244	71.860993019319	8
2	248	72.820130859028	9
2	249	73.639633365362	8
2	253	74.721193582997	9
2	255	75.437336811654	10
2	256	75.513251918941	9
2	260	76.010477708666	10
2	261	76.774905976108	9
2	265	76.960554055024	10
2	266	78.702778912163	9
2	269	80.614541032924	8
2	273	80.737004691872	9
2	274	81.926081079445	8
2	278	82.041065029632	9
2	280	82.74572326926	10
2	281	83.877453986569	9
2	285	84.725733880002	10
2	286	85.85948559904	9
2	289	87.344836581699	8
2	293	88.831437213595	9
2	294	88.881814353927	8
2	298	89.93231738445	9
2	299	90.850896110213	8
2	303	92.325380787521	9
2	304	92.587513496927	8
2	308	93.202077523737	9
2	309	94.197139142468	8
2	313	95.290678747276	9
2	314	96.143747907519	8
2	317	97.792023745007	7
2	321	97.858628527138	8
2	323	98.136061060965	9
2	324	99.507128252476	8
2	327	101.231570936381	7
2	330	103.113296677186	6
2	334	103.648150121642	7
2	335	104.610326591707	6
2	338	105.940544626503	5
2	342	106.186508417425	6
2	344	106.401462875936	7
2	345	107.365861582583	6
2	349	107.572076792265	7
2	351	107.990991636916	8
2	352	108.655261105498	7
2	356	108.658042027893	8
2	357	110.495106225474	7
2	361	110.600629162458	8
2	362	112.439368192492	7
2	366	113.021586175281	8
2	367	113.750003639435	7
2	371	114.842748154251	8
2	372	115.486160733191	7
2	375	116.7019784663	6
2	379	116.808865990586	7
2	381	117.799188904739	8
2	382	118.114358403174	7
2	390	119.52525691084	8
2	391	119.810209830863	7
2	394	121.087817007502	6
2	397	122.965374418361	5
2	401	122.984538529138	6
2	402	124.655269419974	5
2	406	125.682521747099	6
2	407	126.181135399653	5
2	411	126.801242042876	6
2	413	127.683732753084	7
2	414	128.030256529352	6
2	418	128.259121790283	7
2	419	129.388238278231	6
2	422	131.150257374173	5
2	426	131.466157056598	6
2	427	132.828682092218	5
2	431	134.125959126596	6
2	432	134.301720609157	5
2	436	135.450745210029	6
2	437	136.220277147567	5
2	441	137.052130002031	6
2	442	137.930997095643	5
2	446	138.307328891685	6
2	448	139.193267458106	7
2	449	139.234516358016	6
2	452	141.008449487774	5
2	456	141.647326756361	6
2	458	142.022416456935	7
2	459	142.288039866848	6
2	463	143.037523100475	7
2	464	143.770595273947	6
2	468	144.03169159147	7
2	469	145.384686360893	6
2	473	145.478366565016	7
2	475	145.605892679024	8
2	476	146.894310702582	7
2	480	147.197599967746	8
2	481	148.784593566333	7
2	484	150.650670615223	6
2	488	150.662293472426	7
2	490	151.757637232639	8
2	491	152.539708365884	7
2	494	153.782223019947	6
2	497	155.755712845747	5
2	500	157.050561722752	4
2	504	157.455938537587	5
2	506	158.040829712998	6
2	508	158.435946374842	7
2	510	158.611301080629	8
2	511	158.763564402063	7
2	515	159.314837070996	8
2	517	159.864478968168	9
2	518	160.473197602865	8
2	521	161.983316306968	7
2	524	163.579815437098	6
2	528	164.348939918216	7
2	530	164.789451186794	8
2	531	164.928171063785	7
2	535	166.501474348593	8
2	536	166.652697449934	7
2	540	168.320568916193	8
2	541	168.642884220939	7
2	545	170.105847477148	8
2	546	170.169394626293	7
2	550	171.670692121904	8
2	551	171.70166167413	7
2	557	172.799676797431	8
2	558	173.030377262841	7
2	561	174.508455177593	6
2	564	175.844176978814	5
2	568	175.902474252728	6
2	570	176.251080745117	7
2	572	176.840938774013	8
2	573	177.333066654215	7
2	577	178.306074422053	8
2	578	178.602192530977	7
2	582	179.970021468	8
2	583	180.453495492423	7
2	587	180.729362927239	8
2	589	181.474498713299	9
2	590	182.317827283042	8
2	594	182.87941516634	9
2	595	183.852527717511	8
2	599	183.870982252295	9
2	601	183.876712063746	10
2	603	184.379969212401	11
2	605	184.819685682559	12
2	607	185.149329115193	13
2	608	185.189064994092	12
2	611	186.984320926676	11
2	615	187.659478638215	12
2	616	188.497513051155	11
2	619	190.093284677166	10
2	625	191.633715393847	11
2	626	191.678294504445	10
2	630	191.863581213637	11
2	631	193.274497755069	10
2	635	194.363070687952	11
2	637	194.776478993776	12
2	638	194.963451236311	11
2	641	196.795357179653	10
2	645	197.999080254118	11
2	647	198.192378993201	12
2	648	198.460268959787	11
2	652	199.494439582296	12
2	653	199.708062327292	11
2	657	200.001802151973	12
2	658	201.153547224973	11
2	661	202.943189437327	10
2	665	202.974190698538	11
2	666	204.584962955688	10
2	670	206.044238743025	11
2	671	206.473930968356	10
2	675	207.224864781044	11
2	676	207.694097350177	10
2	680	208.058824059805	11
2	683	209.054590001714	10
2	687	209.407749331606	11
2	689	210.027394565585	12
2	691	210.238121800298	13
2	692	210.803489240271	12
2	695	212.219132317056	11
2	699	213.81077635144	12
2	700	213.811819601257	11
2	704	213.935190440501	12
2	706	213.988197097425	13
2	708	214.107560175842	14
2	709	215.155007051502	13
2	712	216.597464056884	12
2	715	218.053183201526	11
2	719	218.082672484613	12
2	720	219.749092765164	11
2	724	220.610596033757	12
2	725	221.24009847698	11
2	729	222.212976789139	12
2	730	222.979353177931	11
2	736	223.248097174889	12
2	738	224.00629144534	13
2	740	224.284695634124	14
2	742	224.459365469661	15
2	743	224.634053145174	14
2	747	224.977534356911	15
2	749	225.037815984073	16
2	751	225.877144645246	17
2	752	226.039192526985	16
2	756	226.168867840826	17
2	758	226.249972521817	18
2	759	227.713059232209	17
2	762	229.530246436793	16
2	766	230.159869437104	17
2	768	230.613723985172	18
2	769	230.734618585754	17
2	773	231.5177941392	18
2	774	232.529934394929	17
2	778	233.114980496042	18
2	780	233.956312847547	19
2	781	234.355927650827	18
2	784	236.019280892621	17
2	787	237.341267775382	16
2	791	237.568830137911	17
2	792	239.112047558102	16
2	796	239.799706586164	17
2	797	240.556857633601	16
2	801	242.394667881035	17
2	802	242.429362281422	16
2	806	243.023031948993	17
2	808	243.509084025552	18
2	809	243.730502928058	17
2	812	245.235813115361	16
2	816	246.271190104802	17
2	818	246.377264876757	18
2	819	246.56743570977	17
2	822	248.211621151689	16
2	825	249.44646717311	15
2	829	249.62100678931	16
2	831	250.235358701417	17
2	832	250.781178030755	16
2	836	251.68439010342	17
2	837	252.354071606893	16
2	841	252.705074727254	17
2	843	252.858029885505	18
2	845	253.040920739935	19
2	847	253.190534851753	20
2	848	253.966097049985	19
2	851	255.666763733338	18
2	854	257.501312072213	17
2	858	257.532834416785	18
2	859	259.100375932279	17
2	863	259.422425468279	18
2	865	260.483895976235	19
2	866	260.566604368399	18
2	870	260.590040136074	19
2	872	261.319198647879	20
2	874	261.561316088697	21
2	875	261.822580968226	20
2	878	263.602016552361	19
2	881	265.029447263489	18
2	885	265.353533091281	19
2	887	265.463575018947	20
2	889	266.180421584079	21
2	890	266.521922208006	20
2	894	266.577796350268	21
2	896	267.644171320879	22
2	897	267.944858919839	21
2	901	268.82262740327	22
2	902	269.197212120342	21
2	906	269.570617376797	22
2	907	270.487222065228	21
2	911	271.19997215607	22
2	912	272.468334755125	21
2	916	272.570278558245	22
2	917	274.417347954596	21
2	920	275.742829935821	20
2	924	276.796255087177	21
2	925	277.163057228746	20
2	928	278.748153282898	19
2	931	280.028347755606	18
2	937	280.538179098414	19
2	939	280.749661209985	20
2	941	280.78640552614	21
2	943	281.280931690008	22
2	944	281.523410080756	21
2	948	282.022292080736	22
2	949	282.920010964583	21
2	953	283.061962432684	22
2	954	284.896392449933	21
2	957	286.204314308624	20
2	960	287.451879606965	19
2	964	287.80538824479	20
2	965	288.815669272478	19
2	968	290.053105375926	18
2	972	290.630308602531	19
2	973	291.627650839473	18
2	976	292.932523366446	17
2	979	294.324510249319	16
2	983	295.327674715288	17
2	984	295.656380557465	16
2	988	296.089268621649	17
2	990	296.185094707334	18
2	991	297.417044419433	17
2	997	298.010348890458	18
2	998	299.078392753388	17
2	1001	300.748630218963	16
2	1004	302.55449482129	15
2	1007	304.434965578104	14
2	1011	305.310639977497	15
2	1013	305.572438735904	16
2	1014	305.824257893311	15
2	1017	307.310914782258	14
2	1021	307.331883307423	15
2	1023	307.524292785839	16
2	1024	309.220099616619	15
2	1028	310.679997632528	16
2	1030	310.762323789942	17
2	1032	310.822185945988	18
2	1034	310.920221203898	19
2	1035	311.089376058811	18
2	1039	311.883035190628	19
2	1040	312.530851189801	18
2	1044	312.786941043507	19
2	1045	314.185792830782	18
2	1048	315.467451076964	17
2	1052	316.584410680806	18
2	1053	316.89100006056	17
2	1057	316.902405751604	18
2	1059	317.011734280269	19
2	1061	317.071211820692	20
2	1062	318.317819002652	19
2	1066	318.361196893128	20
2	1067	319.71851018575	19
2	1070	321.409070332544	18
2	1073	322.858021319294	17
2	1076	324.467892259182	16
2	1079	326.312348602721	15
2	1083	327.409882308521	16
2	1085	327.596648329717	17
2	1086	328.284360557058	16
2	1090	329.765840683379	17
2	1092	330.092461937843	18
2	1093	330.104336805278	17
2	1097	330.933212444573	18
2	1098	331.600590254934	17
2	1102	332.453375074467	18
2	1104	332.840103630341	19
2	1105	333.271700588809	18
2	1108	334.527004357809	17
2	1112	334.939667763982	18
2	1114	335.583000305581	19
2	1116	336.362167039556	20
2	1117	336.372153691584	19
2	1121	336.632669886808	20
2	1122	337.640457031326	19
2	1125	339.12064762135	18
2	1129	339.770011434814	19
2	1133	340.184295247333	20
2	1135	340.230845461077	21
2	1136	340.416382944965	20
2	1140	340.87322802896	21
2	1141	341.95088470132	20
2	1145	343.133671500755	21
2	1146	343.607292198398	20
2	1149	345.080153843024	19
2	1153	346.356897772347	20
2	1154	346.914410870903	19
2	1158	347.407989749977	20
2	1159	348.244329784632	19
2	1163	349.155539712828	20
2	1165	349.358910361688	21
2	1166	349.916063111842	20
2	1169	351.441877378531	19
2	1173	351.728451783975	20
2	1175	352.089753626649	21
2	1176	352.663562889405	20
2	1179	354.160999060244	19
2	1183	354.732705159635	20
2	1185	355.011695148558	21
2	1186	355.5815155482	20
2	1189	356.96842432768	19
2	1193	358.543733461755	20
2	1194	358.758616512277	19
2	1198	360.390312326698	20
2	1199	360.468191299782	19
2	1203	360.71894140736	20
2	1205	361.295420404371	21
2	1206	361.960263640442	20
2	1209	363.682546608531	19
2	1213	364.384339393322	20
2	1215	364.615877896915	21
2	1217	364.694022816301	22
2	1219	364.752134411758	23
2	1220	365.642979012066	22
2	1224	365.874090245453	23
2	1226	367.090878669781	24
2	1227	367.099443445177	23
2	1231	367.568308461837	24
2	1232	368.551520763905	23
2	1236	368.850632509905	24
2	1238	369.320717373912	25
2	1239	370.383763383338	24
2	1243	371.82448235146	25
2	1244	372.215688713649	24
2	1248	373.37478044509	25
2	1249	374.134247205415	24
2	1253	374.196672409432	25
2	1254	375.361750682824	24
2	1258	376.068542999355	25
2	1259	376.780236259111	24
2	1263	377.506751203563	25
2	1265	378.349023996513	26
2	1266	378.386221432508	25
2	1270	378.774690302081	26
2	1271	380.099561700978	25
2	1275	380.166802882208	26
2	1277	380.992098482778	27
2	1278	382.006699445107	26
2	1282	382.60927009552	27
2	1283	383.82756744177	26
2	1286	385.104623538078	25
2	1290	385.930423963164	26
2	1291	386.567090902114	25
2	1294	387.975708572203	24
2	1298	389.43781929836	25
2	1299	389.543789015161	24
2	1303	390.392873222485	25
2	1304	390.827019014591	24
2	1308	391.213413078611	25
2	1310	391.601115320444	26
2	1312	391.602600885357	27
2	1313	392.418235723311	26
2	1316	393.925033563943	25
2	1319	395.856376825654	24
2	1322	397.208472149269	23
2	1326	397.375527238486	24
2	1328	398.308571812746	25
2	1329	398.600382661828	24
2	1333	398.829909569204	25
2	1335	398.877592193386	26
2	1337	399.410538736356	27
2	1339	399.603546542149	28
2	1341	400.034698941204	29
2	1342	400.118824477875	28
2	1345	401.677983720237	27
2	1348	403.237886886866	26
2	1352	403.483720215874	27
2	1354	404.404998787619	28
2	1355	405.109441781053	27
2	1359	405.362420275563	28
2	1361	406.006032662194	29
2	1362	406.534911984214	28
2	1365	407.938276478284	27
2	1369	408.1766946214	28
2	1371	409.358498318225	29
2	1373	409.761937927176	30
2	1374	409.795877435439	29
2	1378	410.532191550633	30
2	1379	411.427137029924	29
2	1383	411.43747450877	30
2	1384	413.288799666808	29
2	1388	414.116838409669	30
2	1389	414.810528584206	29
2	1393	416.172080060174	30
2	1394	416.581124644177	29
2	1398	416.599695385801	30
2	1400	417.055282409956	31
2	1401	418.45272064303	30
2	1405	419.215250835231	31
2	1406	419.985727140689	30
2	1409	421.188558186786	29
2	1413	421.894164264993	30
2	1415	422.04571458421	31
2	1416	423.176251460807	30
2	1420	423.789200789576	31
2	1421	424.657665966833	30
2	1425	425.868868136327	31
2	1426	426.277197629409	30
2	1431	428.127334186817	29
2	1435	428.336489989334	30
2	1436	429.525113961855	29
2	1440	430.141878378684	30
2	1442	430.730486816965	31
2	1443	431.417867892431	30
2	1447	432.501898724853	31
2	1449	432.690531515538	32
2	1450	432.918594758222	31
2	1454	434.698117815199	32
2	1455	434.917667226875	31
2	1459	435.297853211124	32
2	1460	436.191082862029	31
2	1464	436.324893283785	32
2	1465	437.596621727208	31
2	1468	438.813374361778	30
2	1472	439.482838935016	31
2	1473	440.342911883267	30
2	1477	440.56730952063	31
2	1478	441.676261868151	30
2	1482	441.747303945582	31
2	1484	442.424112570377	32
2	1487	443.528038510131	31
2	1491	444.964845324164	32
2	1492	445.242286206419	31
2	1495	446.636607970866	30
2	1499	446.978035122468	31
2	1500	447.884698806527	30
2	1504	448.027595353709	31
2	1506	448.898276640358	32
2	1507	449.238935619603	31
2	1511	450.419762890209	32
2	1512	450.561549829329	31
2	1516	451.329260204443	32
2	1517	452.527806879031	31
2	1521	453.299416345816	32
2	1522	453.991630235138	31
2	1525	455.435714931982	30
2	1528	456.771191378134	29
2	1532	456.91573728273	30
2	1534	457.245477670519	31
2	1535	458.112301087017	30
2	1539	458.248861581343	31
2	1540	459.410622187155	30
2	1544	459.684093779536	31
2	1545	460.875181283067	30
2	1549	461.164284141163	31
2	1550	462.308539256836	30
2	1553	464.293217921453	29
2	1557	464.412886250859	30
2	1559	465.343164723449	31
2	1563	466.061097054678	32
2	1564	466.06272773576	31
2	1568	467.031997422929	32
2	1570	467.515874465879	33
2	1571	467.610608596737	32
2	1574	469.00410559644	31
2	1577	470.648072167495	30
2	1581	471.535707800915	31
2	1582	472.560542656118	30
2	1586	472.79255405482	31
2	1588	472.801235607657	32
2	1589	474.190898505049	31
2	1592	475.666046616631	30
2	1596	475.855288508524	31
2	1598	476.33334044182	32
2	1599	477.580084724175	31
2	1603	477.613509002456	32
2	1604	479.186609384613	31
2	1608	479.31914215344	32
2	1609	480.476741813505	31
2	1613	481.599315479302	32
2	1614	482.454018818969	31
2	1617	484.212280489327	30
2	1621	484.921886046429	31
2	1622	485.79439515789	30
2	1626	486.64495864366	31
2	1627	487.308199582258	30
2	1631	487.856341933922	31
2	1632	488.899076238097	30
2	1635	490.575296293208	29
2	1639	490.831220932604	30
2	1641	491.858707023911	31
2	1643	492.139940155601	32
2	1644	492.259695079932	31
2	1648	492.325321321091	32
2	1650	493.052551486508	33
2	1652	493.080572775526	34
2	1653	494.161612154925	33
2	1657	495.390750626889	34
2	1658	495.444861710267	33
2	1661	496.927737758318	32
2	1665	497.231571942924	33
2	1666	498.177132446514	32
2	1670	498.483590562615	33
2	1672	498.647010555	34
2	1674	498.885721762467	35
2	1675	499.459326185854	34
2	1679	500.454073230785	35
2	1680	500.671508091884	34
2	1683	502.142426890331	33
2	1687	502.326838266015	34
2	1688	503.659269042882	33
2	1693	504.912101484659	32
2	1697	505.12506404343	33
2	1699	505.319642594971	34
2	1701	505.444540351685	35
2	1702	506.38992301562	34
2	1706	506.504740382792	35
2	1707	507.656392931949	34
2	1711	507.834632000564	35
2	1713	508.998465124798	36
2	1714	509.223810213815	35
2	1717	510.697667467791	34
2	1721	511.963547129908	35
2	1722	512.328243448968	34
2	1726	513.342482271028	35
2	1727	513.559182633842	34
2	1730	515.21918800083	33
2	1734	515.388109918928	34
2	1736	516.513336744288	35
2	1738	516.517250776555	36
2	1740	516.689345991701	37
2	1742	516.866786088787	38
2	1743	517.107516340176	37
2	1746	518.474648743132	36
2	1750	519.322193851655	37
2	1751	520.154775297651	36
2	1754	521.429703975851	35
2	1758	522.278660501422	36
2	1759	522.883783149729	35
2	1762	524.506370816203	34
2	1766	524.839034582461	35
2	1768	525.30876752679	36
2	1769	525.935895626815	35
2	1772	527.540606657797	34
2	1776	528.568485737414	35
2	1777	529.448714943425	34
2	1781	529.901812923541	35
2	1783	530.645238171879	36
2	1785	530.655025121199	37
2	1787	530.706715154628	38
2	1788	531.063766428464	37
2	1792	531.202673997682	38
2	1793	532.408652970576	37
2	1796	533.997432912522	36
2	1800	534.65082746088	37
2	1801	535.710888000027	36
2	1804	537.489864334472	35
2	1808	538.068625631323	36
2	1810	538.687058661367	37
2	1812	538.823229523139	38
2	1813	539.45671786555	37
2	1817	539.71271497744	38
2	1818	540.954803149038	37
2	1822	542.609332614829	38
2	1823	542.796637238384	37
2	1827	544.213738498057	38
2	1828	544.597497223698	37
2	1833	546.215393229023	36
2	1837	547.106362181551	37
2	1838	548.101282277525	36
2	1842	548.474411582256	37
2	1843	549.854936284207	36
2	1847	549.922230294005	37
2	1849	550.260617142526	38
2	1850	551.211486966729	37
2	1854	551.508389291768	38
2	1855	553.028529219709	37
2	1858	554.496952789098	36
2	1862	554.889421415227	37
2	1864	555.905511216454	38
2	1865	556.102098009184	37
2	1868	558.097756573007	36
2	1871	559.7752337901	35
2	1874	560.995097314015	34
2	1877	562.260046322092	33
2	1881	563.4743242168	34
2	1883	563.546675292314	35
2	1884	563.860815730884	34
2	1888	564.271680153181	35
2	1889	565.748581506691	34
2	1893	566.793178425985	35
2	1895	567.06053183783	36
2	1896	567.28723711875	35
2	1900	567.45906239991	36
2	1902	567.793060581141	37
2	1904	568.258236911745	38
2	1905	568.943019512302	37
2	1909	569.401834092579	38
2	1910	570.559334429546	37
2	1914	570.783585286001	38
2	1916	572.274792173556	39
2	1917	572.46096066293	38
2	1921	572.533102128491	39
2	1922	573.839927700541	38
2	1926	574.288111408521	39
2	1927	575.319676395326	38
2	1931	575.727101700357	39
2	1932	577.180449439964	38
2	1936	577.78500207156	39
2	1937	578.974118186726	38
2	1941	579.589957756811	39
2	1943	580.184343008487	40
2	1944	580.821674907028	39
2	1947	582.525856902457	38
2	1951	584.068669083278	39
2	1953	584.266849273833	40
2	1954	584.347213088728	39
2	1958	584.68693263455	40
2	1959	585.904758034467	39
2	1962	587.245825320675	38
2	1966	587.925883556826	39
2	1967	588.612488423853	38
2	1971	589.700241772087	39
2	1973	589.904079661862	40
2	1975	590.035885680643	41
2	1976	590.058826782747	40
2	1981	591.831423902332	39
2	1985	591.849862017595	40
2	1987	591.94958156577	41
2	1988	593.113030316315	40
2	1992	594.355708105872	41
2	1993	594.750470129221	40
2	1996	596.390167517036	39
2	2000	596.58212345507	40
2	2001	597.754512919865	39
2	2004	599.158018238477	38
2	2008	599.760926273302	39
2	2009	600.892754859112	38
2	2012	602.736299835153	37
2	2015	604.588055396274	36
2	2019	604.660094905057	37
2	2021	606.179777742379	38
2	2022	606.398467092224	37
2	2025	607.616344530516	36
2	2029	608.455184732405	37
2	2031	608.925983746763	38
2	2032	609.326297016077	37
2	2036	609.801549133497	38
2	2037	610.773705687195	37
2	2040	612.252771801695	36
2	2044	612.837605638666	37
2	2045	613.739666658461	36
2	2048	615.040263803311	35
2	2052	615.798307286408	36
2	2054	616.302593756828	37
2	2055	616.885735243939	36
2	2059	617.853207527249	37
2	2060	618.569786352858	36
2	2063	619.831604549296	35
2	2066	621.149948760502	34
2	2070	622.350814625262	35
2	2071	622.359748423852	34
2	2075	623.106441701638	35
2	2076	624.263692457981	34
2	2079	625.501520311094	33
2	2083	626.474680882634	34
2	2084	627.086255098327	33
2	2088	627.413605205704	34
2	2089	628.470856450132	33
2	2093	629.060281775231	34
2	2094	629.751757731295	33
2	2098	630.18437432335	34
2	2100	630.818719714265	35
2	2101	631.06914101523	34
2	2104	632.368328145711	33
2	2108	632.912525633363	34
2	2110	633.304486201565	35
2	2111	634.026692543557	34
2	2115	634.60862644393	35
2	2116	635.40982095637	34
2	2120	635.56892152095	35
2	2121	636.909595391533	34
2	2125	636.965140035062	35
2	2126	638.35112832897	34
2	2130	638.823940976582	35
2	2132	639.650891971889	36
2	2133	639.663332647464	35
2	2137	640.970347719113	36
2	2138	641.192501585937	35
2	2142	641.436546511093	36
2	2143	642.901004535152	35
2	2147	643.26601784879	36
2	2149	643.47728096005	37
2	2151	643.886928497406	38
2	2153	643.933199337018	39
2	2155	644.144263618698	40
2	2156	644.365610421082	39
2	2160	644.778511403053	40
2	2161	646.282028044952	39
2	2165	646.860752683135	40
2	2166	648.118224348133	39
2	2171	649.77722644676	38
2	2175	650.550894730009	39
2	2177	650.639325763509	40
2	2178	651.161824466852	39
2	2182	652.6000816533	40
2	2183	652.936432610085	39
2	2187	653.184874852808	40
2	2189	653.768073492455	41
2	2190	654.386007193668	40
2	2194	654.62369422054	41
2	2195	656.027742672904	40
2	2199	656.563373333232	41
2	2201	657.01810667017	42
2	2202	657.365255022986	41
2	2206	657.941285334804	42
2	2207	659.302286734438	41
2	2212	661.150834387547	40
2	2216	661.287952923933	41
2	2217	663.069356375194	40
2	2221	664.619263788062	41
2	2222	664.953011619492	40
2	2225	666.85854184684	39
2	2228	668.624605806364	38
2	2232	669.60875419913	39
2	2233	670.437073024368	38
2	2237	670.923915190783	39
2	2238	672.014622348366	38
2	2242	672.113101401948	39
2	2244	672.153840807356	40
2	2248	673.417530290484	41
2	2249	673.808877952961	40
2	2253	674.020233604405	41
2	2255	674.212705474149	42
2	2257	674.540236205911	43
2	2258	675.387089220812	42
2	2262	676.126173749583	43
2	2264	676.231719232674	44
2	2265	677.352652908122	43
2	2269	678.72438231888	44
2	2270	679.124945119588	43
2	2274	679.498244895759	44
2	2275	680.90286339373	43
2	2279	681.732237360352	44
2	2280	682.389100083529	43
2	2284	683.062977002328	44
2	2286	683.976723126497	45
2	2287	684.384796730435	44
2	2291	684.57602389719	45
2	2293	685.255713191409	46
2	2294	685.669400696649	45
2	2298	685.912834539104	46
2	2300	686.335752911659	47
2	2302	686.807197105554	48
2	2303	687.309341530322	47
2	2306	688.659674855887	46
2	2309	689.942745637155	45
2	2313	689.954623323771	46
2	2315	690.931082307745	47
2	2316	691.479017225659	46
2	2319	693.182957728213	45
2	2322	694.782058835408	44
2	2325	696.430708386569	43
2	2329	697.276574040611	44
2	2331	697.74585696596	45
2	2333	698.136341296354	46
2	2334	698.278765084601	45
2	2338	698.557158482202	46
2	2339	699.671797200113	45
2	2342	701.439966655157	44
2	2346	701.640569704401	45
2	2349	702.875269761689	44
2	2353	703.480425130811	45
2	2355	704.441267875295	46
2	2356	704.575563773334	45
2	2360	704.631609760279	46
2	2362	705.597991097296	47
2	2363	705.882705261566	46
2	2366	707.30085618534	45
2	2370	708.246898360401	46
2	2371	709.009028728873	45
2	2375	709.148936767695	46
2	2377	709.320119570625	47
2	2378	710.883853678413	46
2	2382	711.780874631131	47
2	2383	712.879074574642	46
2	2387	713.057076573825	47
2	2389	714.151339005651	48
2	2390	714.156617544599	47
2	2394	715.209728829744	48
2	2396	715.743892469162	49
2	2398	715.759067454763	50
2	2399	715.857223024599	49
2	2403	716.250502131735	50
2	2405	716.555904253484	51
2	2406	717.232957575477	50
2	2410	717.294285303659	51
2	2412	718.728073019689	52
2	2413	718.808693445108	51
2	2416	720.520419603034	50
2	2420	721.277065932825	51
2	2422	721.300458445782	52
2	2423	721.759712603136	51
2	2426	722.979822328507	50
2	2429	724.904114452756	49
2	2432	726.768757209747	48
2	2436	728.355667008573	49
2	2438	728.583545872016	50
2	2439	728.609627598903	49
2	2443	729.423030455561	50
2	2444	730.011666487909	49
2	2448	730.688057806622	50
2	2450	731.430923893526	51
2	2451	731.831634933881	50
2	2455	731.931807753392	51
2	2457	732.074643751088	52
2	2459	732.305281446917	53
2	2462	733.628450128629	52
2	2465	734.858410665027	51
2	2468	736.46738051512	50
2	2472	737.487688834481	51
2	2474	737.488261987723	52
2	2475	737.703173481493	51
2	2479	738.711947416353	52
2	2481	738.746855261712	53
2	2482	739.457130600891	52
2	2485	740.729218729033	51
2	2489	741.750623532215	52
2	2491	742.234043210581	53
2	2492	742.44167996776	52
2	2496	743.151475974161	53
2	2497	743.714037679887	52
2	2500	745.518522728054	51
2	2504	745.593454964384	52
2	2505	746.835926521203	51
2	2508	748.206661456271	50
2	2512	748.858466170553	51
2	2514	749.694108683514	52
2	2516	749.725839347048	53
2	2517	749.797948907136	52
2	2521	750.354922833205	53
2	2523	750.418809322168	54
2	2525	751.056666785028	55
2	2527	751.285952527937	56
2	2528	751.349810659892	55
2	2532	752.787572538196	56
2	2533	752.911629413075	55
2	2537	753.186755545473	56
2	2538	754.563335601247	55
2	2542	755.130778746616	56
2	2543	756.35704482217	55
2	2547	756.491631854307	56
2	2549	757.078463360205	57
2	2550	757.713497163548	56
2	2554	759.060350816256	57
2	2555	759.600282673172	56
2	2559	759.816064799024	57
2	2560	761.476152201376	56
2	2563	763.112921657234	55
2	2567	764.727697286249	56
2	2568	764.735752562068	55
2	2572	765.80495066669	56
2	2573	766.07818966341	55
2	2577	767.868914487092	56
2	2578	767.920401205316	55
2	2581	769.153395133473	54
2	2585	769.259581386712	55
2	2587	769.295960488422	56
2	2588	770.398466846541	55
2	2592	770.510133016037	56
2	2593	771.905285736926	55
2	2597	773.37917486983	56
2	2598	773.699018923573	55
2	2602	774.621827020145	56
2	2603	775.391518303387	55
2	2607	775.850903378694	56
2	2608	777.385002380245	55
2	2612	778.059996697162	56
2	2613	779.232361244977	55
2	2616	781.149907427289	54
2	2620	781.540491434466	55
2	2621	782.60143914	54
2	2624	783.811811970369	53
2	2628	785.098338884002	54
2	2630	785.548960100906	55
2	2631	785.637129450225	54
2	2634	787.490745752313	53
2	2638	787.865751202909	54
2	2639	789.264735374422	53
2	2643	789.413217123593	54
2	2644	791.252060908088	53
2	2648	792.808994093212	54
2	2649	792.876243830481	53
2	2652	794.209424735242	52
2	2655	795.509611664721	51
2	2659	795.70877818761	52
2	2661	796.694046327841	53
2	2662	797.020273124621	52
2	2666	797.639387130894	53
2	2667	798.535727500551	52
2	2671	798.784812123858	53
2	2673	799.536012234972	54
2	2674	799.806161059633	53
2	2677	801.047942672864	52
2	2680	802.924020409592	51
2	2684	803.077466512025	52
2	2686	803.494468529935	53
2	2687	804.801190072865	52
2	2691	806.113312624436	53
2	2692	806.193028358378	52
2	2698	807.679976400033	53
2	2699	808.184619725317	52
2	2702	809.526925597534	51
2	2705	811.252644178093	50
2	2709	811.698807313407	51
2	2710	812.939303428874	50
2	2714	813.7529276207	51
2	2715	814.739542354093	50
2	2720	816.084269945891	49
2	2724	816.407263514909	50
2	2725	817.731063791373	49
2	2728	818.961911102393	48
2	2732	819.520947648076	49
2	2734	819.679305727668	50
2	2735	820.22759316937	49
2	2739	820.266076001438	50
2	2741	821.068669107174	51
2	2742	821.548171975659	50
2	2746	822.203754091707	51
2	2747	823.198618068741	50
2	2750	824.439608246283	49
2	2754	824.845437895195	50
2	2755	826.114880588101	49
2	2759	827.30736129859	50
2	2761	827.438627779512	51
2	2762	827.576668962659	50
2	2766	828.001006794974	51
2	2768	828.087878973284	52
2	2769	829.465015730085	51
2	2773	829.921656743569	52
2	2778	831.200718400823	51
2	2781	832.660809733542	50
2	2785	833.560363545561	51
2	2786	834.504102819981	50
2	2790	835.218440614167	51
2	2791	835.854341783384	50
2	2794	837.151422451073	49
2	2798	837.662125849945	50
2	2800	838.091723400107	51
2	2801	838.567440989436	50
2	2805	839.368039867226	51
2	2806	839.900174372652	50
2	2810	840.59400258667	51
2	2811	841.558953916104	50
2	2815	841.845249176635	51
2	2817	841.856663163272	52
2	2818	843.522338355528	51
2	2822	844.284833544814	52
2	2824	844.850205981701	53
2	2825	844.891588671328	52
2	2829	845.41167087682	53
2	2831	845.455479624788	54
2	2835	845.972423339893	55
2	2836	846.181154390247	54
2	2840	848.100700331556	55
2	2842	848.118605224004	56
2	2843	848.155119942696	55
2	2847	848.672611875314	56
2	2848	849.376697093443	55
2	2852	850.084745823845	56
2	2853	850.773292241813	55
2	2857	851.624554341069	56
2	2860	852.324653514111	55
2	2864	853.386715567526	56
2	2865	854.219550886945	55
2	2869	854.735914951882	56
2	2870	856.176791895189	55
2	2874	856.21365255077	56
2	2876	857.384487094576	57
2	2877	857.465397722282	56
2	2880	859.208661271453	55
2	2883	860.808877401807	54
2	2887	861.597684208405	55
2	2888	862.225370457776	54
2	2892	863.240099714354	55
2	2893	863.526466346353	54
2	2896	865.204203774228	53
2	2900	865.712507626941	54
2	2902	865.722676862865	55
2	2904	865.775223504425	56
2	2905	866.976413704089	55
2	2910	868.969235876582	54
2	2913	870.574253917492	53
2	2917	870.772012567187	54
2	2919	870.943381986458	55
2	2920	871.774293975352	54
2	2924	872.505334703721	55
2	2925	873.401756662323	54
2	2929	874.21296577602	55
2	2930	874.68055877146	54
2	2933	876.504124344705	53
2	2938	878.071886997117	52
2	2942	878.500243676926	53
2	2944	879.008857540139	54
2	2945	879.581505851453	53
2	2949	879.829880910218	54
2	2950	880.983178737206	53
2	2954	881.174459032694	54
2	2955	882.770479320554	53
2	2959	882.865071725857	54
2	2962	884.153571225336	53
2	2967	885.620201618975	52
2	2972	886.978690802498	51
2	2976	887.136366167015	52
2	2978	887.466819885514	53
2	2979	888.456545533059	52
2	2983	889.537218518188	53
2	2984	890.057156479923	52
2	2988	891.531449729097	53
2	2989	891.634993757127	52
2	2993	892.823745206554	53
2	2994	893.282386337226	52
2	2998	893.518940262271	53
2	3000	893.828568811051	54
2	3001	894.595441549463	53
2	3005	894.764441076824	54
2	3006	896.508612547075	53
2	3009	898.282237761845	52
2	3013	898.368462671843	53
2	3014	899.631173689482	52
2	3018	899.666841576421	53
2	3019	901.370158777018	52
2	3023	901.446457918261	53
2	3024	902.889648554665	52
2	3028	903.194796837616	53
2	3029	904.267542930697	52
2	3033	904.572487687841	53
2	3034	905.468491955479	52
2	3038	906.62885640747	53
2	3039	906.844046838214	52
2	3042	908.151484387187	51
2	3046	908.430286080121	52
2	3048	908.503505828626	53
2	3049	909.645812769426	52
2	3053	911.241166784226	53
2	3054	911.287543934217	52
2	3057	912.621618643781	51
2	3061	913.469547433345	52
2	3062	914.108551934553	51
2	3065	915.310151172993	50
2	3068	916.704945526091	49
2	3072	917.816978242651	50
2	3074	918.200538435383	51
2	3075	918.386437911545	50
2	3079	919.149722477329	51
2	3081	919.688912343477	52
2	3082	920.162534950678	51
2	3086	920.383791480236	52
2	3088	920.792588456918	53
2	3090	921.655346798054	54
2	3091	922.123573663276	53
2	3094	923.766993606467	52
2	3098	923.835883309803	53
2	3100	924.480961719166	54
2	3102	925.735048304586	55
2	3103	925.738880092655	54
2	3107	925.885720745497	55
2	3109	926.854032461285	56
2	3110	927.73629314844	55
2	3116	928.544747524535	56
2	3117	929.733117546332	55
2	3120	931.129947226313	54
2	3124	931.55154693415	55
2	3125	932.520160120917	54
2	3129	933.372611316694	55
2	3130	934.164078905997	54
2	3134	934.564926424189	55
2	3135	935.799399731499	54
2	3139	935.964695785181	55
2	3141	936.871957752732	56
2	3143	937.33104033611	57
2	3144	937.435816478361	56
2	3147	939.187550667491	55
2	3151	939.896099301701	56
2	3153	940.402602768894	57
2	3154	940.919694664706	56
2	3158	941.518827048835	57
2	3160	941.724449089627	58
2	3161	942.846649795775	57
2	3165	943.64633786367	58
2	3168	944.137581167374	57
2	3172	944.270480428979	58
2	3173	945.598912084852	57
2	3177	945.704251284282	58
2	3179	946.054553297295	59
2	3180	947.486171369073	58
2	3184	949.005869159361	59
2	3185	949.47072363962	58
2	3189	949.564864016701	59
2	3190	951.081342077633	58
2	3194	952.274850677701	59
2	3195	952.388858886813	58
2	3198	953.957919772347	57
2	3202	954.87381079643	58
2	3203	955.717456802917	57
2	3207	955.915319669074	58
2	3208	957.284428516035	57
2	3212	957.662727362472	58
2	3214	958.425670945003	59
2	3216	958.46023035014	60
2	3217	959.19186735638	59
2	3221	959.240140536662	60
2	3222	960.970016868045	59
2	3225	962.646086088759	58
2	3228	964.250804008176	57
2	3232	964.691716206302	58
2	3233	965.991512184595	57
2	3237	967.127389252696	58
2	3238	967.827332746429	57
2	3242	968.149142518352	58
2	3244	968.980442124455	59
2	3245	969.351150232745	58
2	3249	970.692640063903	59
2	3250	970.888322429364	58
2	3254	971.680855916871	59
2	3255	972.174637365532	58
2	3258	973.549710348253	57
2	3261	975.380725890589	56
2	3265	976.535841579589	57
2	3267	976.810034706229	58
2	3268	976.870254053925	57
2	3272	978.20076659249	58
2	3273	978.252447491889	57
2	3277	979.841197674161	58
2	3278	979.929292516415	57
2	3282	980.199531611647	58
2	3283	981.618840721813	57
2	3287	981.958626206669	58
2	3289	982.50774474351	59
2	3290	983.477532963832	58
2	3294	984.400010259697	59
2	3295	984.926331755896	58
2	3299	985.936970585926	59
2	3300	986.176059905258	58
2	3303	988.028772747335	57
2	3306	989.769857497518	56
2	3310	991.11265732173	57
2	3311	991.717385208611	56
2	3315	992.346491814325	57
2	3317	992.622066524445	58
2	3318	993.149356105555	57
2	3321	994.672297373604	56
2	3324	995.982518534739	55
2	3328	996.314435358244	56
2	3330	996.53501200832	57
2	3332	996.943246103955	58
2	3334	997.39741148416	59
2	3335	997.448347985749	58
2	3339	997.685680676571	59
2	3340	998.829002829087	58
2	3344	1000.11152052178	59
2	3345	1000.123620684636	58
2	3349	1000.613273742292	59
2	3350	1002.105613792692	58
2	3356	1002.514134500169	59
2	3357	1003.598305498254	58
2	3361	1003.668770485623	59
2	3362	1005.046056562294	58
2	3366	1005.453028751064	59
2	3367	1006.985944138658	58
2	3371	1007.567362326251	59
2	3372	1008.470399826769	58
2	3376	1009.415962051664	59
2	3377	1010.074014830779	58
2	3380	1011.276711726937	57
2	3384	1011.66487079342	58
2	3386	1011.75538600747	59
2	3387	1012.819619227577	58
2	3391	1013.380159446064	59
2	3392	1014.310966761228	58
2	3396	1014.846968123452	59
2	3398	1015.730889792069	60
2	3399	1016.084203587849	59
2	3402	1017.538122635711	58
2	3405	1018.861109831188	57
2	3409	1019.053642976615	58
2	3410	1020.152722647045	57
2	3413	1021.558448353414	56
2	3416	1022.909640216832	55
2	3420	1023.517997689771	56
2	3422	1023.723480060164	57
2	3423	1024.465075024222	56
2	3427	1025.15406754375	57
2	3428	1025.748623932158	56
2	3431	1027.121741341059	55
2	3434	1028.891185969864	54
2	3437	1030.680439661262	53
2	3440	1032.009832848241	52
2	3444	1032.515549204357	53
2	3445	1033.474950533738	52
2	3448	1035.441131521767	51
2	3452	1036.349569638116	52
2	3454	1036.961968373039	53
2	3455	1037.204695316782	52
2	3459	1037.693554558461	53
2	3461	1038.825342533043	54
2	3463	1038.850456506337	55
2	3464	1038.90408837088	54
2	3468	1039.596850193091	55
2	3469	1040.733183050161	54
2	3473	1040.93910401496	55
2	3475	1041.041371069429	56
2	3477	1041.696068796939	57
2	3479	1042.531429387434	58
2	3480	1042.555988013191	57
2	3483	1044.052573519392	56
2	3487	1044.183945653887	57
2	3488	1045.795702689892	56
2	3492	1046.436123334874	57
2	3494	1046.804623120319	58
2	3495	1047.145737988135	57
2	3499	1048.133114123572	58
2	3501	1048.774048236888	59
2	3503	1048.81918849876	60
2	3504	1049.089382265141	59
2	3507	1050.384944068087	58
2	3511	1051.285772645822	59
2	3512	1051.633074136456	58
2	3516	1052.139713709912	59
2	3517	1053.002037902181	58
2	3521	1053.379390835574	59
2	3522	1054.518397577298	58
2	3526	1056.019681491451	59
2	3527	1056.171717616362	58
2	3531	1057.036234292731	59
2	3532	1057.467344554519	58
2	3536	1058.084983729446	59
2	3538	1058.370612157635	60
2	3539	1059.346296705125	59
2	3542	1060.821880021883	58
2	3546	1062.033484278296	59
2	3548	1062.156952269567	60
2	3549	1062.396139106719	59
2	3553	1062.95807895775	60
2	3556	1063.770811833633	59
2	3560	1065.322070482585	60
2	3561	1065.336812008364	59
2	3564	1066.842895879788	58
2	3568	1067.321474860468	59
2	3569	1068.404266256844	58
2	3573	1069.558243691112	59
2	3574	1069.760803085012	58
2	3578	1070.789538144044	59
2	3579	1071.087097326299	58
2	3582	1072.597267134307	57
2	3586	1073.281585739354	58
2	3587	1074.081085470511	57
2	3590	1076.027089842415	56
2	3596	1077.48939966481	57
2	3597	1077.499757005094	56
2	3601	1077.860859592363	57
2	3602	1078.788218257582	56
2	3606	1079.455788652187	57
2	3607	1080.569899844943	56
2	3611	1081.334714283966	57
2	3613	1081.34862190402	58
2	3615	1081.537438938613	59
2	3616	1082.05495085959	58
2	3619	1083.793469160243	57
2	3623	1084.093982297494	58
2	3625	1084.27736303844	59
2	3626	1085.770022983669	58
2	3630	1087.689168709109	59
2	3631	1087.749679805903	58
2	3635	1088.385367785395	59
2	3636	1089.381862678385	58
2	3640	1089.897627463364	59
2	3641	1090.794320013194	58
2	3645	1091.58751211917	59
2	3646	1092.488183439902	58
2	3650	1093.066598635621	59
2	3651	1094.025939553796	58
2	3655	1094.033665730591	59
2	3657	1094.51658672832	60
2	3660	1095.599658638804	59
2	3664	1096.121497136629	60
2	3665	1097.275545780553	59
2	3669	1097.860461432571	60
2	3670	1098.829220707907	59
2	3673	1100.344228100597	58
2	3677	1101.239651893479	59
2	3678	1101.635039080686	58
2	3682	1102.721807493521	59
2	3683	1103.209910389229	58
2	3687	1103.476510591339	59
2	3689	1103.496765308445	60
2	3690	1105.207412102639	59
2	3694	1105.724513359421	60
2	3696	1106.354964232824	61
2	3697	1106.588314786933	60
2	3700	1108.260452448584	59
2	3704	1108.587457105148	60
2	3706	1109.617846983946	61
2	3707	1110.11787937545	60
2	3711	1112.049000378073	61
2	3712	1112.081957151189	60
2	3716	1112.544089166628	61
2	3717	1113.885910879641	60
2	3720	1115.184165075987	59
2	3724	1115.528524830704	60
2	3726	1117.118411269116	61
2	3727	1117.162223126001	60
2	3730	1118.865586261458	59
2	3734	1118.92648714342	60
2	3736	1119.002190223762	61
2	3737	1120.700037821762	60
2	3741	1120.941086019034	61
2	3743	1120.968161890591	62
2	3745	1121.954176959009	63
2	3746	1122.698729336828	62
2	3749	1124.324057265937	61
2	3753	1124.602160946692	62
2	3755	1124.842152593577	63
2	3756	1125.738393450163	62
2	3760	1126.54900127296	63
2	3761	1127.140821349628	62
2	3765	1127.789731390266	63
2	3766	1128.951378993883	62
2	3770	1129.4641476337	63
2	3771	1130.477624372958	62
2	3775	1130.58791791291	63
2	3776	1132.192417443923	62
2	3780	1133.490231238773	63
2	3781	1133.619873438969	62
2	3785	1134.026682985328	63
2	3786	1135.251244679846	62
2	3790	1136.093559567485	63
2	3791	1136.791987370893	62
2	3795	1137.332523764235	63
2	3797	1137.698309065652	64
2	3799	1137.880986756241	65
2	3800	1138.223747822463	64
2	3804	1138.900747963254	65
2	3805	1139.814472274303	64
2	3809	1140.614100949307	65
2	3810	1141.175784693107	64
2	3813	1142.679190924212	63
2	3816	1143.919092755027	62
2	3819	1145.166423143268	61
2	3823	1145.680132173575	62
2	3825	1145.930577914681	63
2	3826	1146.597210501701	62
2	3830	1146.683260389696	63
2	3832	1147.140252503207	64
2	3833	1147.948352915243	63
2	3836	1149.474157208585	62
2	3840	1149.716009251691	63
2	3842	1149.797138965794	64
2	3844	1150.433267308216	65
2	3845	1150.849119595446	64
2	3849	1151.210217072959	65
2	3851	1151.658784590484	66
2	3852	1152.156245546051	65
2	3856	1152.544370639472	66
2	3857	1153.488127152257	65
2	3861	1154.452506241636	66
2	3862	1155.427795080848	65
2	3866	1156.296658516105	66
2	3867	1157.32292732206	65
2	3871	1157.578491625696	66
2	3872	1159.119182736993	65
2	3875	1161.055206225075	64
2	3880	1162.930707974367	63
2	3884	1162.957866769631	64
2	3886	1163.439805977311	65
2	3887	1164.894627816983	64
2	3891	1166.04204051795	65
2	3892	1166.287140383952	64
2	3896	1166.515808134041	65
2	3897	1167.669079763264	64
2	3901	1168.782738821241	65
2	3902	1169.088265159175	64
2	3905	1170.804632232718	63
2	3909	1170.813882355233	64
2	3910	1172.057758006461	63
2	3914	1172.546193679882	64
2	3915	1173.422883061327	63
2	3918	1175.16850837414	62
2	3921	1176.655738046028	61
2	3925	1177.869432906269	62
2	3926	1177.888794984117	61
2	3929	1179.774648275792	60
2	3932	1181.527915592685	59
2	3936	1181.601015500712	60
2	3938	1182.65841839745	61
2	3939	1183.500285599947	60
2	3942	1184.899415964082	59
2	3946	1185.914322377018	60
2	3947	1186.171708968289	59
2	3951	1186.800257084149	60
2	3953	1187.331912323123	61
2	3954	1187.99288752862	60
2	3959	1189.567969747453	59
2	3963	1189.569014913795	60
2	3965	1190.47838468521	61
2	3967	1190.913543440711	62
2	3968	1191.347698278173	61
2	3972	1191.410925864136	62
2	3974	1192.420008551237	63
2	3975	1192.617430279224	62
2	3978	1194.228740102432	61
2	3982	1194.490559580697	62
2	3984	1195.956353570893	63
2	3985	1196.049786650582	62
2	3989	1197.464797244398	63
2	3990	1197.785333060107	62
2	3994	1197.802941036974	63
2	3995	1199.179057589925	62
2	3999	1199.31699233567	63
2	4000	1200.448922053917	62
2	4004	1200.898712092228	63
2	4006	1201.80402924286	64
2	4008	1201.946732551274	65
2	4009	1202.368221366784	64
2	4013	1202.95626842119	65
2	4014	1203.74729819168	64
2	4017	1205.560037192336	63
2	4021	1206.292197544505	64
2	4023	1206.326451609249	65
2	4024	1206.793020715198	64
2	4028	1206.95627890667	65
2	4030	1207.554590537023	66
2	4031	1208.137316421239	65
2	4034	1209.650219759723	64
2	4037	1211.013275595574	63
2	4040	1212.412360761321	62
2	4044	1213.620873929542	63
2	4045	1213.696206114075	62
2	4049	1214.34436586956	63
2	4050	1215.026106545149	62
2	4053	1216.337787080749	61
2	4057	1216.394146306451	62
2	4059	1216.557978764655	63
2	4061	1217.551841760147	64
2	4063	1217.808228588061	65
2	4065	1217.830292307675	66
2	4066	1217.970533694706	65
2	4070	1218.470040510096	66
2	4074	1219.645677373752	67
2	4075	1219.80141710621	66
2	4081	1221.394818500982	67
2	4082	1221.747619277618	66
2	4085	1223.544226461469	65
2	4088	1225.497827781371	64
2	4092	1225.574149626628	65
2	4094	1225.92980646433	66
2	4095	1227.0541298654	65
2	4099	1227.795185168041	66
2	4101	1228.515768536899	67
2	4102	1228.842720457918	66
2	4105	1230.456204257912	65
2	4109	1230.891378060596	66
2	4111	1231.013619864722	67
2	4113	1231.169166647179	68
2	4114	1231.685293751403	67
2	4118	1231.901404228756	68
2	4120	1232.198153303379	69
2	4122	1232.299839790561	70
2	4123	1233.112273975655	69
2	4127	1233.398297449343	70
2	4129	1234.366876992104	71
2	4130	1234.863646938286	70
2	4136	1235.686570495518	71
2	4137	1236.541479278176	70
2	4141	1238.02276936852	71
2	4142	1238.119486515789	70
2	4146	1239.0874949436	71
2	4147	1239.354496314755	70
2	4151	1239.772305501943	71
2	4152	1240.785091125785	70
2	4156	1240.979167682624	71
2	4158	1241.746239176526	72
2	4159	1242.09987167251	71
2	4162	1243.382587208419	70
2	4166	1244.612017645448	71
2	4168	1244.615455799056	72
2	4169	1244.718705020106	71
2	4173	1245.718507773755	72
2	4175	1245.850345147488	73
2	4176	1246.075778210169	72
2	4180	1246.086499069522	73
2	4182	1246.562760441394	74
2	4183	1247.510358862585	73
2	4189	1248.26638107493	74
2	4190	1249.340831068351	73
2	4193	1250.698390220298	72
2	4197	1250.822705585139	73
2	4199	1251.956871110908	74
2	4201	1252.092420046002	75
2	4203	1252.369363533094	76
2	4204	1252.629305506131	75
2	4208	1252.66369348983	76
2	4209	1253.937384794472	75
2	4212	1255.269165591156	74
2	4216	1255.621582549153	75
2	4217	1256.74113065247	74
2	4221	1257.774216530331	75
2	4222	1258.214483872806	74
2	4225	1259.856708258209	73
2	4229	1260.688135926252	74
2	4230	1261.222298915689	73
2	4233	1262.56281307098	72
2	4237	1263.007155186975	73
2	4239	1263.451620730242	74
2	4241	1263.61816029307	75
2	4243	1263.911837084301	76
2	4245	1264.181419522575	77
2	4246	1264.289436367904	76
2	4250	1264.315882206299	77
2	4251	1265.735413156827	76
2	4255	1266.440661992807	77
2	4256	1267.092512328741	76
2	4259	1268.501470009615	75
2	4262	1270.065321322349	74
2	4266	1270.366154266506	75
2	4267	1271.79319174849	74
2	4271	1271.951803584619	75
2	4273	1272.132527317273	76
2	4275	1273.291573146686	77
2	4276	1273.40586483479	76
2	4280	1274.512528159812	77
2	4282	1275.0633613678	78
2	4283	1275.375346167949	77
2	4286	1277.351529919174	76
2	4289	1278.803240421232	75
2	4293	1279.287918869756	76
2	4295	1279.330592786641	77
2	4297	1279.821056604628	78
2	4298	1280.219768735212	77
2	4302	1280.581971436715	78
2	4304	1280.591602275084	79
2	4307	1281.886693344456	78
2	4311	1282.806308779347	79
2	4313	1282.918975700459	80
2	4315	1283.613431797993	81
2	4316	1283.885008111973	80
2	4320	1284.032818044304	81
2	4321	1285.70131532215	80
2	4324	1287.118062896286	79
2	4328	1287.830051632413	80
2	4330	1288.122847730903	81
2	4331	1288.660339241852	80
2	4335	1289.238285000989	81
2	4339	1289.994483149012	82
2	4340	1290.102891538669	81
2	4344	1290.815754707477	82
2	4346	1291.363852975811	83
2	4347	1291.409194502239	82
2	4351	1292.618911199229	83
2	4352	1292.899768568207	82
2	4356	1293.635393420822	83
2	4358	1294.026688771012	84
2	4359	1294.316387483109	83
2	4362	1295.795172052648	82
2	4365	1297.7717894882	81
2	4369	1298.271734485395	82
2	4371	1298.300721005025	83
2	4372	1299.442852338035	82
2	4376	1300.280686743362	83
2	4378	1301.137755856273	84
2	4380	1301.17129119943	85
2	4381	1301.324246530053	84
2	4384	1302.800224561249	83
2	4388	1302.939477140147	84
2	4389	1304.735876080771	83
2	4393	1305.267579923159	84
2	4394	1306.130437973891	83
2	4398	1306.801046896982	84
2	4399	1307.548296970506	83
2	4403	1308.320741059131	84
2	4404	1308.787692603287	83
2	4408	1309.615932874181	84
2	4411	1310.350915846605	83
2	4415	1310.653863037655	84
2	4416	1311.886696041566	83
2	4419	1313.141473988262	82
2	4423	1314.146262435713	83
2	4425	1314.61154323638	84
2	4426	1314.691980353375	83
2	4429	1315.985039768931	82
2	4433	1316.089647231623	83
2	4435	1316.229007893057	84
2	4437	1316.622765426479	85
2	4438	1317.704488743101	84
2	4442	1318.570462058572	85
2	4443	1319.56767443568	84
2	4446	1320.797206674335	83
2	4452	1321.740495192407	84
2	4453	1322.028111515386	83
2	4457	1322.079719099613	84
2	4458	1323.838618623843	83
2	4461	1325.523501684708	82
2	4465	1325.927367371857	83
2	4467	1326.295995759073	84
2	4468	1327.016624067915	83
2	4472	1327.544111612095	84
2	4474	1328.620763541292	85
2	4475	1328.715220220951	84
2	4478	1330.654915476782	83
2	4482	1331.468474150011	84
2	4484	1331.491855175459	85
2	4487	1332.498610959766	84
2	4492	1333.871006141236	83
2	4496	1334.22429574388	84
2	4497	1335.294296196481	83
2	4500	1336.579690892441	82
2	4504	1336.635931156758	83
2	4505	1337.96438046061	82
2	4509	1338.310365076808	83
2	4511	1339.692399152818	84
2	4512	1339.851552169775	83
2	4516	1339.905263744719	84
2	4519	1341.513970834581	83
2	4522	1342.956625058135	82
2	4526	1343.908362944833	83
2	4528	1344.111123462176	84
2	4529	1344.755244657962	83
2	4533	1345.129684845012	84
2	4535	1345.659209602141	85
2	4536	1346.41727117282	84
2	4540	1347.294602497402	85
2	4541	1347.886842619075	84
2	4544	1349.688350680849	83
2	4548	1349.875607835065	84
2	4549	1350.927724236628	83
2	4553	1352.031198662673	84
2	4555	1352.517911816827	85
2	4556	1352.667319703294	84
2	4559	1354.09280126412	83
2	4563	1354.399315975017	84
2	4564	1355.488114199793	83
2	4567	1356.861835445842	82
2	4570	1358.37230871637	81
2	4574	1359.5652043502	82
2	4575	1359.768083230226	81
2	4579	1360.013289968414	82
2	4580	1361.718486502959	81
2	4584	1362.796284442836	82
2	4585	1363.616427522904	81
2	4588	1365.583757169924	80
2	4592	1365.694041314849	81
2	4594	1366.731188219247	82
2	4595	1367.421700628109	81
2	4599	1367.632731299265	82
2	4601	1367.793882196787	83
2	4602	1369.134537463642	82
2	4606	1369.68135636843	83
2	4608	1370.227460371482	84
2	4609	1370.645779266401	83
2	4613	1370.967264595176	84
2	4614	1372.067079460255	83
2	4617	1373.638421925536	82
2	4621	1373.709042232346	83
2	4623	1375.159278245805	84
2	4624	1375.57391982135	83
2	4628	1375.93461172662	84
2	4630	1376.25754102291	85
2	4631	1376.992725227406	84
2	4635	1377.976282234842	85
2	4636	1378.567414489208	84
2	4640	1378.570148666507	85
2	4641	1380.025976614474	84
2	4645	1380.036435234021	85
2	4647	1381.734129722235	86
2	4648	1381.851480003266	85
2	4652	1383.288571968458	86
2	4653	1383.531643806963	85
2	4656	1385.49296220076	84
2	4660	1385.867007463953	85
2	4662	1386.929588150126	86
2	4663	1387.016598612635	85
2	4666	1388.243575790531	84
2	4669	1389.44819911123	83
2	4673	1389.45792353775	84
2	4675	1390.493424890973	85
2	4677	1391.361105214237	86
2	4678	1391.384699688114	85
2	4682	1391.687384727669	86
2	4683	1393.207450068563	85
2	4687	1394.179437708617	86
2	4688	1394.733153755225	85
2	4691	1396.341259709567	84
2	4695	1397.301169881228	85
2	4696	1397.815912761919	84
2	4700	1398.18326828308	85
2	4702	1398.936365664588	86
2	4703	1399.195312840313	85
2	4706	1401.012186436177	84
2	4710	1401.323188190847	85
2	4711	1402.574270339691	84
2	4714	1403.870761944362	83
2	4718	1405.048241757682	84
2	4719	1405.161725303539	83
2	4723	1406.075586256161	84
2	4724	1406.878924788543	83
2	4728	1408.007296970308	84
2	4730	1408.082842781467	85
2	4731	1408.216725629763	84
2	4735	1409.817645991566	85
2	4736	1410.156904844017	84
2	4742	1411.659518649653	85
2	4743	1411.913546145157	84
2	4747	1412.96109201713	85
2	4749	1413.317579388535	86
2	4750	1413.713869312973	85
2	4754	1415.43110010204	86
2	4755	1415.479345733122	85
2	4759	1416.3308182006	86
2	4760	1417.154326193974	85
2	4763	1418.521939786532	84
2	4767	1419.030913276246	85
2	4769	1419.410618981568	86
2	4770	1420.069862377652	85
2	4774	1421.408279168161	86
2	4775	1421.455908540086	85
2	4779	1421.616093807032	86
2	4783	1421.815223953048	87
2	4784	1422.72494514008	86
2	4788	1423.210236163893	87
2	4789	1424.00686327015	86
2	4793	1424.913451210719	87
2	4794	1425.93823525385	86
2	4798	1426.553585071557	87
2	4800	1427.364306746148	88
2	4801	1427.863667893605	87
2	4805	1428.496301045991	88
2	4807	1429.601080172251	89
2	4808	1429.731123799281	88
2	4812	1431.35279027049	89
2	4813	1431.679070790866	88
2	4816	1433.268906071605	87
2	4819	1434.868358767787	86
2	4823	1434.945472404856	87
2	4824	1436.113756382847	86
2	4827	1437.321359997066	85
2	4831	1437.622171261034	86
2	4833	1437.88764201627	87
2	4835	1438.450264993033	88
2	4836	1438.707443434382	87
2	4840	1439.639307033763	88
2	4841	1440.233785941648	87
2	4845	1440.348989290681	88
2	4847	1440.877185270492	89
2	4849	1440.982209647686	90
2	4850	1442.219615263316	89
2	4854	1443.860841474217	90
2	4855	1444.131141683656	89
2	4858	1445.700049360666	88
2	4862	1446.393862200796	89
2	4863	1447.141607522975	88
2	4867	1447.415848032639	89
2	4868	1448.349918480601	88
2	4872	1449.43501582527	89
2	4874	1449.781724478782	90
2	4875	1449.845435916085	89
2	4879	1450.67134734003	90
2	4880	1451.127166179393	89
2	4884	1451.271044258712	90
2	4886	1452.064194318118	91
2	4887	1452.573105637368	90
2	4893	1454.117751470917	91
2	4894	1454.182574132841	90
2	4898	1455.108535852926	91
2	4899	1455.821178852778	90
2	4903	1456.317846185755	91
2	4904	1457.412256010819	90
2	4907	1459.153279272664	89
2	4911	1459.335864859632	90
2	4913	1459.934848650057	91
2	4914	1460.899354155931	90
2	4918	1461.452300670133	91
2	4920	1461.672530891866	92
2	4921	1462.276096716347	91
2	4924	1463.627442658889	90
2	4930	1464.770655885224	91
2	4932	1464.874806273865	92
2	4933	1465.418055666248	91
2	4937	1466.300205980929	92
2	4938	1467.230727829794	91
2	4942	1467.33317931251	92
2	4944	1467.353868345089	93
2	4945	1469.035240403573	92
2	4949	1469.853663977064	93
2	4950	1470.713129819754	92
2	4953	1472.229548448707	91
2	4957	1473.573006742827	92
2	4958	1473.668848151351	91
2	4961	1475.058216620433	90
2	4965	1476.229103597076	91
2	4966	1476.554827606316	90
2	4971	1477.958180385466	89
2	4974	1479.668726308468	88
2	4978	1480.35119236492	89
2	4980	1480.55247492737	90
2	4981	1481.565869552466	89
2	4985	1482.689353835283	90
2	4987	1482.79675046102	91
2	4988	1483.384645503583	90
2	4991	1485.175209102231	89
2	4995	1486.329198527232	90
2	4997	1486.468638397398	91
2	4998	1486.506697154987	90
2	5001	1488.068314181093	89
2	5004	1489.821377182949	88
2	5008	1489.857997023136	89
2	5009	1491.157575210008	88
2	5013	1491.285625569968	89
2	5015	1492.205966673992	90
2	5016	1492.935813251334	89
2	5019	1494.507568922835	88
2	5023	1494.995615468092	89
2	5025	1495.064136897003	90
2	5026	1496.159938512752	89
2	5030	1496.189543452573	90
2	5031	1497.951287920969	89
2	5035	1498.778434186617	90
2	5037	1499.025449833017	91
2	5038	1499.666830968121	90
2	5041	1501.416830599131	89
2	5045	1501.442826847776	90
2	5047	1502.987711550328	91
2	5048	1503.119255967261	90
2	5052	1503.458511806546	91
2	5054	1503.798953131898	92
2	5055	1504.36273897347	91
2	5059	1505.66499990898	92
2	5060	1506.183923288444	91
2	5064	1506.82311673631	92
2	5066	1506.947457067085	93
2	5067	1507.631454677703	92
2	5070	1509.255053854371	91
2	5074	1509.703520543468	92
2	5076	1509.974262859262	93
2	5078	1510.43853945188	94
2	5079	1510.812285709391	93
2	5083	1512.374081481265	94
2	5084	1512.709191407459	93
2	5088	1513.77066235234	94
2	5089	1514.484027129794	93
2	5093	1515.66898708476	94
2	5094	1515.713211087333	93
2	5098	1515.721408340111	94
2	5101	1516.922592790062	93
2	5104	1518.125059868778	92
2	5108	1518.44371610588	93
2	5110	1518.445006191821	94
2	5112	1518.895295495266	95
2	5113	1519.978423905942	94
2	5117	1520.88053797383	95
2	5118	1521.824590552236	94
2	5122	1523.5532858798	95
2	5123	1523.726989874627	94
2	5127	1524.371912524473	95
2	5129	1525.299160781913	96
2	5130	1525.434216564718	95
2	5133	1527.367625336546	94
2	5137	1527.505025133991	95
2	5139	1527.634980057351	96
2	5140	1529.200988091353	95
2	5143	1530.514603323314	94
2	5147	1531.73746705906	95
2	5148	1531.799919657606	94
2	5151	1533.295904538046	93
2	5154	1535.057370544981	92
2	5158	1536.272333791103	93
2	5159	1536.417425824154	92
2	5163	1537.03411361091	93
2	5165	1537.048149001035	94
2	5166	1537.624188701447	93
2	5170	1537.642906244619	94
2	5172	1538.86865699278	95
2	5173	1539.463648518	94
2	5177	1540.322668397958	95
2	5178	1541.009478790511	94
2	5181	1542.237424748775	93
2	5184	1544.060720404435	92
2	5188	1544.84206131579	93
2	5189	1545.37709071954	92
2	5193	1545.424279199767	93
2	5194	1546.613431619119	92
2	5198	1546.64308338133	93
2	5200	1547.600640429612	94
2	5201	1547.93188578618	93
2	5205	1548.565080346069	94
2	5206	1549.385833609488	93
2	5210	1549.432953002458	94
2	5212	1550.534199257536	95
2	5214	1550.774241251092	96
2	5216	1550.938199678259	97
2	5217	1550.98581895997	96
2	5220	1552.838116731506	95
2	5224	1554.556650761256	96
2	5226	1554.618294759561	97
2	5227	1554.819630931888	96
2	5230	1556.094567555014	95
2	5234	1556.498608114076	96
2	5236	1557.058981592303	97
2	5237	1557.88402323724	96
2	5240	1559.475446776871	95
2	5244	1560.114299837146	96
2	5245	1560.975488222029	95
2	5249	1561.500565839647	96
2	5250	1562.620077911775	95
2	5254	1563.777975742057	96
2	5255	1564.391495908807	95
2	5258	1565.984134031842	94
2	5262	1566.978186944775	95
2	5263	1567.825372824455	94
2	5267	1568.38811704044	95
2	5269	1568.841442532475	96
2	5271	1568.969343715606	97
2	5272	1569.360821115421	96
2	5275	1571.280686248476	95
2	5278	1572.754777810546	94
2	5281	1574.314381321343	93
2	5286	1575.664200087833	92
2	5289	1577.474317467409	91
2	5293	1578.11196004967	92
2	5295	1578.354930918325	93
2	5296	1579.351228534813	92
2	5300	1579.692000679235	93
2	5301	1581.075523071001	92
2	5305	1582.779332215898	93
2	5306	1582.847580609853	92
2	5310	1583.101651227943	93
2	5312	1583.863263276988	94
2	5314	1584.137193772082	95
2	5315	1584.271721381331	94
2	5319	1585.071940872997	95
2	5321	1585.493937583218	96
2	5322	1586.165648488896	95
2	5326	1587.352446027397	96
2	5328	1587.482676524044	97
2	5330	1587.49425181714	98
2	5332	1587.713299834947	99
2	5333	1587.829777632477	98
2	5337	1589.018339492943	99
2	5338	1589.676784083816	98
2	5342	1589.843221032592	99
2	5343	1591.44195027371	98
2	5347	1591.799279609919	99
2	5349	1592.929995148972	100
2	5350	1593.092227631817	99
2	5354	1593.571387974277	100
2	5356	1594.206335671126	101
2	5357	1594.320325372005	100
2	5361	1595.567803956166	101
2	5363	1595.609755784713	102
2	5364	1596.312716634208	101
2	5368	1596.315440708495	102
2	5369	1597.609569258438	101
2	5373	1598.890901559661	102
2	5374	1599.056221253806	101
2	5378	1599.356268511405	102
2	5379	1600.826094456584	101
2	5382	1602.049025332191	100
2	5385	1603.417999381767	99
2	5388	1605.066919809589	98
2	5392	1605.167700664433	99
2	5394	1605.543021394983	100
2	5395	1607.063350317264	99
2	5399	1607.303077480126	100
2	5401	1607.788403079474	101
2	5402	1608.471725968467	100
2	5406	1608.741490120386	101
2	5408	1609.624528996594	102
2	5410	1609.888751963149	103
2	5411	1610.40668821373	102
2	5415	1611.372254193304	103
2	5417	1611.95325090061	104
2	5418	1612.223879322978	103
2	5422	1612.334642997451	104
2	5424	1613.246566586318	105
2	5426	1613.309154898599	106
2	5427	1613.933478949415	105
2	5431	1614.30195858208	106
2	5432	1615.534435182633	105
2	5436	1615.587660296752	106
2	5438	1616.54863384893	107
2	5439	1617.465717997784	106
2	5443	1618.061379039735	107
2	5445	1619.123411304645	108
2	5446	1619.372015029947	107
2	5450	1620.672315207701	108
2	5451	1621.345797614018	107
2	5454	1622.649363094764	106
2	5459	1624.215160970772	105
2	5463	1625.265227196316	106
2	5465	1625.424497213388	107
2	5466	1625.831349144141	106
2	5470	1626.290053578318	107
2	5472	1626.413931047334	108
2	5473	1627.24213903864	107
2	5477	1628.64706662081	108
2	5478	1629.106680699821	107
2	5481	1630.580071276064	106
2	5485	1631.319177458328	107
2	5486	1631.903826678554	106
2	5490	1632.002657989126	107
2	5492	1633.63527684177	108
2	5493	1633.805820322046	107
2	5497	1634.752568579703	108
2	5498	1635.158115318427	107
2	5502	1635.20871712393	108
2	5503	1636.546333047012	107
2	5507	1637.398515110326	108
2	5508	1638.029875914762	107
2	5512	1638.3450876164	108
2	5513	1639.968511234047	107
2	5517	1641.02102789616	108
2	5519	1641.107138113257	109
2	5520	1641.21480408703	108
2	5524	1642.295243807023	109
2	5525	1642.494911436187	108
2	5528	1644.412830327088	107
2	5532	1645.497111412315	108
2	5533	1646.156191724921	107
2	5537	1647.36430379179	108
2	5538	1647.954298235486	107
2	5542	1648.243768749058	108
2	5544	1648.791866817799	109
2	5545	1649.923348862688	108
2	5549	1650.806564709814	109
2	5551	1651.098363176425	110
2	5553	1651.256481162399	111
2	5555	1651.627646068612	112
2	5556	1651.657901382084	111
2	5560	1652.341121339398	112
2	5562	1652.620729215465	113
2	5563	1653.156287372495	112
2	5567	1653.426737577369	113
2	5569	1653.753458544416	114
2	5570	1654.964031318213	113
2	5574	1655.583194330074	114
2	5576	1655.996127771902	115
2	5577	1656.280862563859	114
2	5580	1657.752464357029	113
2	5583	1658.96576520783	112
2	5587	1659.416874537964	113
2	5588	1660.876313619699	112
2	5592	1661.61663030162	113
2	5593	1662.571238254953	112
2	5599	1663.743476681764	113
2	5600	1663.937954289291	112
2	5603	1665.376267162349	111
2	5607	1665.941023102955	112
2	5609	1666.08654196183	113
2	5610	1666.62862628923	112
2	5614	1667.236029901595	113
2	5615	1668.050905084621	112
2	5619	1668.508646515186	113
2	5620	1669.865505920734	112
2	5624	1670.841170951629	113
2	5625	1671.599296998802	112
2	5629	1671.864803623956	113
2	5632	1673.322109056834	112
2	5635	1675.086451583367	111
2	5638	1676.351708560448	110
2	5642	1676.660411656229	111
2	5643	1677.679527411621	110
2	5647	1678.082486365634	111
2	5648	1678.978153189283	110
2	5652	1679.481070438931	111
2	5654	1679.856883911855	112
2	5656	1679.858371933851	113
2	5658	1680.133170413939	114
2	5659	1680.627789571148	113
2	5662	1682.079115773749	112
2	5665	1683.283414112602	111
2	5669	1684.005718635799	112
2	5670	1684.767465004337	111
2	5673	1685.995370788884	110
2	5677	1686.211160425246	111
2	5679	1686.673020902288	112
2	5681	1687.11086176129	113
2	5682	1687.955782357988	112
2	5685	1689.470387452108	111
2	5689	1690.221091057833	112
2	5690	1690.695223193442	111
2	5694	1691.166254723525	112
2	5696	1691.218150167325	113
2	5697	1692.275704934461	112
2	5700	1694.190254391184	111
2	5704	1694.222276618068	112
2	5705	1695.481580835035	111
2	5709	1695.756766789529	112
2	5711	1695.790704705486	113
2	5712	1697.050839244401	112
2	5716	1697.328484372527	113
2	5717	1699.010097646912	112
2	5721	1699.314722207684	113
2	5722	1700.22265827061	112
2	5725	1701.529243933981	111
2	5729	1701.677459934444	112
2	5731	1701.745530537315	113
2	5732	1703.459688887385	112
2	5735	1705.278391162318	111
2	5739	1706.65439044442	112
2	5740	1707.093391544198	111
2	5743	1708.635687926424	110
2	5746	1710.401322853764	109
2	5750	1711.015299690624	110
2	5752	1711.245146822356	111
2	5753	1712.183931525437	110
2	5757	1712.389096392485	111
2	5758	1713.517501626549	110
2	5762	1713.852824627243	111
2	5763	1715.066247472739	110
2	5766	1716.515953305563	109
2	5770	1716.974566625844	110
2	5771	1718.020270195989	109
2	5775	1719.05886205495	110
2	5776	1719.776146735637	109
2	5780	1720.567577526261	110
2	5782	1720.94373002264	111
2	5784	1721.293572847779	112
2	5785	1721.412274712896	111
2	5789	1722.404701223232	112
2	5790	1722.719881832799	111
2	5794	1723.734211651691	112
2	5795	1724.504838245375	111
2	5799	1725.263726948197	112
2	5800	1725.954099736003	111
2	5803	1727.686027972227	110
2	5807	1727.813653261955	111
2	5809	1728.359859136133	112
2	5810	1729.547280479049	111
2	5814	1731.053466126601	112
2	5815	1731.405065348198	111
2	5819	1732.055884419498	112
2	5821	1732.122138491095	113
2	5823	1732.612967468462	114
2	5824	1732.906483767008	113
2	5827	1734.141671409657	112
2	5831	1735.271174276402	113
2	5832	1735.8656450363	112
2	5836	1735.925991778727	113
2	5838	1735.94863679374	114
2	5839	1737.747354980012	113
2	5843	1737.881489684379	114
2	5844	1739.467672519585	113
2	5847	1741.047555521143	112
2	5851	1741.32825268205	113
2	5853	1742.504685280963	114
2	5854	1742.837507391361	113
2	5857	1744.22580386327	112
2	5861	1745.634530349904	113
2	5862	1745.855086399814	112
2	5866	1746.865399598557	113
2	5867	1747.157694771713	112
2	5871	1747.627567927332	113
2	5873	1747.829847629322	114
2	5874	1748.858954114667	113
2	5877	1750.479254489778	112
2	5881	1751.722378493732	113
2	5882	1752.138800413547	112
2	5885	1753.652704164958	111
2	5889	1754.522419231769	112
2	5891	1754.578025026328	113
2	5892	1755.273845770596	112
2	5895	1756.751343727312	111
2	5899	1757.535718247747	112
2	5900	1758.595251836828	111
2	5904	1758.912121481834	112
2	5906	1759.367389452535	113
2	5907	1759.890083631701	112
2	5910	1761.84383367674	111
2	5913	1763.19861851783	110
2	5916	1764.62825495509	109
2	5920	1764.822308292539	110
2	5921	1766.426434798553	109
2	5925	1767.874838228744	110
2	5926	1768.149211037918	109
2	5931	1769.735983836851	108
2	5935	1770.05640200963	109
2	5937	1771.628266211485	110
2	5938	1771.721498469463	109
2	5941	1773.500617421432	108
2	5944	1775.301825888841	107
2	5947	1776.864970834939	106
2	5950	1778.242935458584	105
2	5954	1779.303246067864	106
2	5955	1779.468932469389	105
2	5959	1780.687450396074	106
2	5960	1780.690288140452	105
2	5964	1780.794707322752	106
2	5966	1781.264182423294	107
2	5968	1781.53530795231	108
2	5970	1781.733824799882	109
2	5971	1782.084840578599	108
2	5975	1782.651576634887	109
2	5976	1783.876131842485	108
2	5979	1785.622997238314	107
2	5983	1786.49497446484	108
2	5984	1787.279753639749	107
2	5988	1788.541066650166	108
2	5990	1788.938248505382	109
2	5992	1788.949938758721	110
2	5993	1789.262461424633	109
2	5997	1790.772495854638	110
2	5998	1791.224651871263	109
2	6002	1791.779746106386	110
2	6003	1792.461697360887	109
2	6007	1792.704048449194	110
2	6008	1793.672864110968	109
2	6012	1794.752793057457	110
2	6014	1794.818518172475	111
2	6015	1795.229159716158	110
2	6019	1796.124347955055	111
2	6020	1797.006925527579	110
2	6024	1798.070946354997	111
2	6026	1798.306430435673	112
2	6028	1798.790109910575	113
2	6029	1798.884160478986	112
2	6033	1799.233211966661	113
2	6035	1800.104226081454	114
2	6036	1800.399610212646	113
2	6040	1800.684979063749	114
2	6041	1801.973946381002	113
2	6045	1802.56982291944	114
2	6046	1803.654688212476	113
2	6049	1804.863725367575	112
2	6053	1806.250681117632	113
2	6054	1806.656059378772	112
2	6058	1807.001624085169	113
2	6060	1807.23848644487	114
2	6061	1808.422496001064	113
2	6064	1810.342108150772	112
2	6068	1811.742884295571	113
2	6069	1812.268646976366	112
2	6073	1812.288956745402	113
2	6075	1813.805254647378	114
2	6076	1814.112158990293	113
2	6080	1814.151236521241	114
2	6081	1815.380082634478	113
2	6084	1817.278352763332	112
2	6088	1817.544575295368	113
2	6090	1818.182920705314	114
2	6091	1819.02737283615	113
2	6095	1819.337792167239	114
2	6096	1820.248149826951	113
2	6100	1821.124196106938	114
2	6101	1821.870056635342	113
2	6104	1823.346663442455	112
2	6108	1823.533769174271	113
2	6110	1823.858415439075	114
2	6111	1824.775871829331	113
2	6115	1824.914140621518	114
2	6116	1826.530981390752	113
2	6119	1828.079047332719	112
2	6123	1829.413858342532	113
2	6124	1829.50429906325	112
2	6127	1830.730668254584	111
2	6131	1830.789946845125	112
2	6133	1831.096340733234	113
2	6134	1832.363095766693	112
2	6138	1833.640494625559	113
2	6139	1833.814106321908	112
2	6143	1834.386196335671	113
2	6144	1835.38605617845	112
2	6148	1836.80474853476	113
2	6149	1836.904093687064	112
2	6153	1837.338397632755	113
2	6155	1837.808937393466	114
2	6156	1838.15488802047	113
2	6160	1838.554756174016	114
2	6162	1838.697281376595	115
2	6164	1838.94543876592	116
2	6165	1839.645143702827	115
2	6169	1839.772278825595	116
2	6171	1839.835486856822	117
2	6172	1840.89066524861	116
2	6176	1841.15291274001	117
2	6177	1842.441300238684	116
2	6180	1843.884196764432	115
2	6183	1845.794776716098	114
2	6187	1846.632954116682	115
2	6188	1847.362826644271	114
2	6192	1848.669111688971	115
2	6193	1848.698927428588	114
2	6197	1848.895985785883	115
2	6199	1849.722933073691	116
2	6201	1849.753892879116	117
2	6202	1850.346690780125	116
2	6205	1852.326547252587	115
2	6209	1853.431491931791	116
2	6210	1853.697547542318	115
2	6214	1854.755560943508	116
2	6215	1855.053078734144	115
2	6219	1855.441081867199	116
2	6221	1856.200800293169	117
2	6222	1856.491404181919	116
2	6226	1857.01898822562	117
2	6228	1857.388156464151	118
2	6229	1858.020860316059	117
2	6232	1859.314969755164	116
2	6236	1859.655280205579	117
2	6237	1860.637196401334	116
2	6240	1861.927126774019	115
2	6244	1862.428447155886	116
2	6247	1863.51965788213	115
2	6251	1863.93839698921	116
2	6252	1864.806921752556	115
2	6256	1865.379684884431	116
2	6257	1866.532163095115	115
2	6260	1868.04933675771	114
2	6264	1868.416582036515	115
2	6266	1869.41508035296	116
2	6267	1869.967655929377	115
2	6270	1871.259882061196	114
2	6274	1871.393690908141	115
2	6275	1872.622372178187	114
2	6279	1873.22751657495	115
2	6281	1874.325345389768	116
2	6282	1874.355429153343	115
2	6286	1874.747122011766	116
2	6287	1875.858579576587	115
2	6291	1876.699401762141	116
2	6293	1876.703430070212	117
2	6294	1877.553436384922	116
2	6298	1879.091104573272	117
2	6299	1879.320553695051	116
2	6303	1879.448751790872	117
2	6305	1880.515381914606	118
2	6307	1880.556291471321	119
2	6308	1880.565992133146	118
2	6311	1881.803442657938	117
2	6317	1882.329199773898	118
2	6318	1883.78392034137	117
2	6322	1884.160871445365	118
2	6323	1885.287896591624	117
2	6326	1886.811113062514	116
2	6330	1887.359898476786	117
2	6331	1888.201821722476	116
2	6335	1888.376666689542	117
2	6336	1889.726383413574	116
2	6340	1891.306893563755	117
2	6341	1891.628731022602	116
2	6345	1891.844255949703	117
2	6347	1892.49885537074	118
2	6349	1892.631758628399	119
2	6350	1893.31281668601	118
2	6353	1894.787874186052	117
2	6356	1896.459504426097	116
2	6360	1897.690471629917	117
2	6361	1897.732867615869	116
2	6365	1898.383769251343	117
2	6366	1899.448574979989	116
2	6370	1899.582037004285	117
2	6372	1900.818485900675	118
2	6373	1901.291099264113	117
2	6377	1901.39049034928	118
2	6378	1902.851726389503	117
2	6381	1904.730140111608	116
2	6385	1905.831344519159	117
2	6386	1906.721301320022	116
2	6389	1908.610438122613	115
2	6393	1909.775099617714	116
2	6394	1910.606392003795	115
2	6398	1910.800287197353	116
2	6400	1911.219515677519	117
2	6402	1911.714011910221	118
2	6403	1911.810715987174	117
2	6406	1913.036925337849	116
2	6410	1913.579620540643	117
2	6412	1913.917201720819	118
2	6413	1914.483089876933	117
2	6417	1914.557934909057	118
2	6418	1916.070230441553	117
2	6422	1917.216990189851	118
2	6423	1917.8225386385	117
2	6427	1917.97595327834	118
2	6428	1919.421900278342	117
2	6432	1920.692679047532	118
2	6433	1921.177111797606	117
2	6436	1922.485432056909	116
2	6440	1923.013057099603	117
2	6441	1924.229819124577	116
2	6445	1925.405567153581	117
2	6447	1926.18613850379	118
2	6448	1926.18860027456	117
2	6452	1926.222018263333	118
2	6453	1928.014897102875	117
2	6456	1929.82513302212	116
2	6460	1931.519360184292	117
2	6461	1931.572411552084	116
2	6465	1931.716458709808	117
2	6467	1932.309427360228	118
2	6468	1933.330818143313	117
2	6472	1933.376477615752	118
2	6473	1935.305831819971	117
2	6477	1935.838418680626	118
2	6478	1937.261776376155	117
2	6482	1937.670235450656	118
2	6483	1938.650716718112	117
2	6487	1939.119160510348	118
2	6489	1939.206581829445	119
2	6490	1939.934622575913	118
2	6493	1941.160681156081	117
2	6497	1942.628379740074	118
2	6498	1942.841306770605	117
2	6503	1944.203738712531	116
2	6506	1945.578162136499	115
2	6510	1946.528506823549	116
2	6512	1946.681158501369	117
2	6513	1946.897786758479	116
2	6517	1947.0298772149	117
2	6518	1948.832410849642	116
2	6522	1950.062082271737	117
2	6523	1950.200052464765	116
2	6527	1950.623128888145	117
2	6529	1951.118118690697	118
2	6530	1951.643172286276	117
2	6534	1951.82879534759	118
2	6536	1952.154112926673	119
2	6537	1953.548403291416	118
2	6541	1953.755834917655	119
2	6543	1953.767235891868	120
2	6545	1954.236558013278	121
2	6546	1955.421368126583	120
2	6550	1955.497027844133	121
2	6551	1957.246604043443	120
2	6555	1958.336942261565	121
2	6556	1958.625649257761	120
2	6560	1959.658523605431	121
2	6561	1959.921397908789	120
2	6565	1960.085560049081	121
2	6567	1960.418043662017	122
2	6569	1960.441007769502	123
2	6570	1961.238026216638	122
2	6573	1963.122505682346	121
2	6577	1964.186899951343	122
2	6579	1964.520839867474	123
2	6580	1964.854143912729	122
2	6583	1966.240986615244	121
2	6587	1966.270673094487	122
2	6589	1966.571742936557	123
2	6590	1967.625351735029	122
2	6594	1967.77011940609	123
2	6595	1969.064644799951	122
2	6598	1970.953849972423	121
2	6602	1972.099838375481	122
2	6603	1972.908279856678	121
2	6607	1974.128518076761	122
2	6608	1974.195489459123	121
2	6611	1975.546936790656	120
2	6614	1976.893543932598	119
2	6617	1978.53721792103	118
2	6620	1979.921993898612	117
2	6624	1981.554718702992	118
2	6625	1981.592037226271	117
2	6629	1982.733445156726	118
2	6630	1983.108258305315	117
2	6633	1985.058597167965	116
2	6636	1986.665111364063	115
2	6640	1986.783351405512	116
2	6642	1988.436421105821	117
2	6643	1988.464777621266	116
2	6647	1989.080212437725	117
2	6648	1989.783524042566	116
2	6652	1990.388147272406	117
2	6653	1991.06860713904	116
2	6657	1991.370724549646	117
2	6659	1991.677915520675	118
2	6661	1992.431540079738	119
2	6662	1992.901520990033	118
2	6665	1994.641072489146	117
2	6669	1995.579491469494	118
2	6671	1995.597450334703	119
2	6674	1996.615586834598	118
2	6677	1998.059743170079	117
2	6681	1998.455162941061	118
2	6684	1999.622363966901	117
2	6687	2001.266133154754	116
2	6690	2002.4957078796	115
2	6693	2004.438455216599	114
2	6697	2004.7681504127	115
2	6699	2004.918806792706	116
2	6703	2006.004470954291	117
2	6704	2006.16072204524	116
2	6708	2007.202067543674	117
2	6709	2007.504230489221	116
2	6713	2008.355443180516	117
2	6715	2008.368047461562	118
2	6717	2009.146662054353	119
2	6718	2009.397115181212	118
2	6722	2011.336499271936	119
2	6723	2011.377999446739	118
2	6728	2012.69895736539	117
2	6732	2013.688964621194	118
2	6733	2014.444887899246	117
2	6736	2016.030180255335	116
2	6739	2017.582491799642	115
2	6743	2017.78060003103	116
2	6744	2018.965270365786	115
2	6748	2019.161843040095	116
2	6750	2019.922443801321	117
2	6752	2020.102936826571	118
2	6753	2020.821467876632	117
2	6757	2020.905342444508	118
2	6759	2021.961280847922	119
2	6760	2022.099678548251	118
2	6763	2023.653144447517	117
2	6767	2024.65845242844	118
2	6768	2024.996203119506	117
2	6772	2025.738872420894	118
2	6774	2026.106534171414	119
2	6775	2026.734618007031	118
2	6779	2027.495469696843	119
2	6781	2028.519835760065	120
2	6783	2028.521479700138	121
2	6784	2028.521488351014	120
2	6788	2030.036861759585	121
2	6789	2030.499696632486	120
2	6795	2031.79293637934	121
2	6797	2031.934787434168	122
2	6798	2032.1479277745	121
2	6804	2032.783346699023	122
2	6806	2033.290860530611	123
2	6807	2033.938995933171	122
2	6811	2034.809124895956	123
2	6812	2035.547805199783	122
2	6815	2037.109972492989	121
2	6819	2038.156270597674	122
2	6820	2039.023000725742	121
2	6824	2039.566320739576	122
2	6825	2041.002512095879	121
2	6828	2042.867344244207	120
2	6832	2043.01874110534	121
2	6834	2043.287344052256	122
2	6835	2044.701763908016	121
2	6839	2045.53189982565	122
2	6840	2046.181168112355	121
2	6844	2047.022379858233	122
2	6846	2047.294545152052	123
2	6847	2047.897352195914	122
2	6853	2048.92741047489	123
2	6855	2048.950798034326	124
2	6856	2049.15196120144	123
2	6860	2049.706285702729	124
2	6862	2051.002550660602	125
2	6863	2051.031881652224	124
2	6867	2051.24646476479	125
2	6868	2052.522951536822	124
2	6871	2053.830456158715	123
2	6875	2054.339166099666	124
2	6877	2055.370827314661	125
2	6878	2055.654716240625	124
2	6881	2057.515038955781	123
2	6885	2057.615070296224	124
2	6887	2058.62454911473	125
2	6888	2059.448487370472	124
2	6892	2059.611909855313	125
2	6894	2059.76137750897	126
2	6895	2060.721678061049	125
2	6899	2060.732106196435	126
2	6901	2061.026567322521	127
2	6902	2062.56216982064	126
2	6906	2063.235443645933	127
2	6907	2063.809984105091	126
2	6911	2064.43039465244	127
2	6912	2065.764519016455	126
2	6916	2065.815686740973	127
2	6918	2067.231569609299	128
2	6919	2067.42390599345	127
2	6923	2068.031505671461	128
2	6924	2068.996831642847	127
2	6928	2069.578266882116	128
2	6929	2070.942597118031	127
2	6933	2071.197960665771	128
2	6934	2072.354418975871	127
2	6938	2073.250390617469	128
2	6939	2074.332764053356	127
2	6943	2075.043537894985	128
2	6944	2076.002978261013	127
2	6948	2076.059711096552	128
2	6949	2077.346596897964	127
2	6953	2078.217330213222	128
2	6954	2079.031034529035	127
2	6958	2079.509719880858	128
2	6960	2080.23069647492	129
2	6961	2080.280594614347	128
2	6965	2081.429468727814	129
2	6966	2081.55817486198	128
2	6969	2083.070365838905	127
2	6973	2083.601857340176	128
2	6974	2084.388863490348	127
2	6978	2084.956136072799	128
2	6979	2086.271959650343	127
2	6982	2087.836667675538	126
2	6986	2088.991521158887	127
2	6987	2089.577332506528	126
2	6991	2090.030788967748	127
2	6992	2091.227380013106	126
2	6996	2091.402812101189	127
2	6998	2092.64723566664	128
2	6999	2092.70476188456	127
2	7002	2094.592021429551	126
2	7005	2096.334929190588	125
2	7008	2098.038878032018	124
2	7012	2098.155191517708	125
2	7014	2099.128084892522	126
2	7016	2099.243309746775	127
2	7017	2099.699653293949	126
2	7021	2099.786320842626	127
2	7022	2101.078576774534	126
2	7025	2102.465950716671	125
2	7029	2103.012417061042	126
2	7030	2104.031531778176	125
2	7034	2104.039331739822	126
2	7036	2104.745977869001	127
2	7038	2104.952858263498	128
2	7040	2105.381826310247	129
2	7041	2105.646624894452	128
2	7044	2107.057567345177	127
2	7048	2107.323927131868	128
2	7050	2108.289467714823	129
2	7051	2108.71538485979	128
2	7055	2109.860989203406	129
2	7056	2110.316051925545	128
2	7060	2110.446212923698	129
2	7061	2111.923919131433	128
2	7064	2113.286663699349	127
2	7068	2113.406465506628	128
2	7070	2115.022530158243	129
2	7071	2115.155865872105	128
2	7075	2115.290868918348	129
2	7078	2116.772645823111	128
2	7082	2118.099251747576	129
2	7083	2118.489405019221	128
2	7087	2119.451291745879	129
2	7088	2120.204116491986	128
2	7092	2120.966769446187	129
2	7094	2121.630748888499	130
2	7095	2122.091814865185	129
2	7099	2123.012290329611	130
2	7100	2123.690359480692	129
2	7104	2123.942417514261	130
2	7106	2124.018479005763	131
2	7107	2125.622400841502	130
2	7111	2126.061661954211	131
2	7113	2127.050017958603	132
2	7114	2127.050473059913	131
2	7117	2128.62729331368	130
2	7121	2129.9319632923	131
2	7122	2130.433184700472	130
2	7126	2130.799380983654	131
2	7128	2131.854832096979	132
2	7129	2132.145431581711	131
2	7133	2132.282906113778	132
2	7134	2133.449354809163	131
2	7137	2135.130076905912	130
2	7140	2136.798740189163	129
2	7144	2138.618399732265	130
2	7145	2138.736867892383	129
2	7149	2139.014707485681	130
2	7151	2139.500226605182	131
2	7152	2140.086172920665	130
2	7156	2141.616920489504	131
2	7158	2141.655754109876	132
2	7159	2141.935539386435	131
2	7163	2142.820736899804	132
2	7165	2143.019310216784	133
2	7166	2143.435190366781	132
2	7170	2144.03257426223	133
2	7171	2145.2387693599	132
2	7175	2145.33406136279	133
2	7177	2145.835658578351	134
2	7179	2146.158349297209	135
2	7180	2146.488007842949	134
2	7184	2147.728680292823	135
2	7185	2147.953537267087	134
2	7188	2149.503499743542	133
2	7191	2151.005421252003	132
2	7195	2152.413845136821	133
2	7197	2152.518517552394	134
2	7198	2152.994272120124	133
2	7202	2153.626689347009	134
2	7204	2154.003001865119	135
2	7206	2154.093291219734	136
2	7207	2154.616830244301	135
2	7211	2155.138370475328	136
2	7212	2156.034443395598	135
2	7216	2157.632302406783	136
2	7217	2157.992976174517	135
2	7221	2158.813364493303	136
2	7223	2159.116298825859	137
2	7224	2159.981930989972	136
2	7228	2160.92081593903	137
2	7230	2161.011449618366	138
2	7231	2161.641842043972	137
2	7234	2163.500869812644	136
2	7237	2164.767944425545	135
2	7241	2164.845585598469	136
2	7243	2166.279718188546	137
2	7244	2166.611057545259	136
[...]
5	74679	22437.592177473777	11440.532556314
5	74737	22454.091357159638	4205.8678703272
5	74755	22460.277690196992	7578.3868847896
5	74846	22487.318659467459	18782.751396324
5	75009	22529.240878841488	9002.577479907
5	75044	22540.664901958613	4221.6519503364
5	75064	22547.240125019869	15833.162864164
5	75104	22560.829759834913	7597.1242912866
5	75182	22582.29166899605	4245.7249171724
5	75254	22605.017737502256	4236.3848353023
5	75277	22612.046136559384	4241.8617324051
5	75344	22633.28615955303	10390.112015941
5	75434	22661.313089227514	22293.744780766
5	75519	22685.548982864457	12624.567289743
5	75610	22712.455170629014	13581.526792875
5	75695	22737.941221542309	2250.1857823453
5	75707	22740.55946998785	9088.9833680485
5	75714	22742.128294515821	4264.5394414983
5	75719	22743.542418517942	6066.6587184863
5	75751	22752.78534756119	6074.7961198658
5	75759	22755.724286687585	2256.9406331572
5	75864	22785.626302670713	4271.4948841446
5	75922	22804.783762319227	11625.39205543
5	75968	22816.26148089173	11635.277423503
5	75990	22822.942033887307	9129.9395090903
5	76065	22844.765991412129	4286.4801376582
5	76117	22857.29298165797	9153.8529192617
5	76229	22891.196862790012	7728.4424231967
5	76262	22898.999835172691	2268.3940728571
5	76309	22912.996812413656	9185.3797533241
5	76328	22917.397166229808	9188.2603121176
5	76521	22972.649447578401	18810.195133505
5	76534	22976.829273582459	4315.5568034365
5	76584	22992.86554954464	9203.1987753924
5	76768	23053.642472136973	11766.696438587
5	76806	23064.088566639481	2291.1194523545
5	76809	23065.402394060438	6145.2145885262
5	76832	23072.890684947577	2292.7712007344
5	76895	23090.563089770284	2293.5143307284
5	76987	23118.77634588184	9252.0171734126
5	77049	23135.299938013054	2300.5517671276
5	77102	23148.793937675862	4343.6198677381
5	77114	23152.65936723931	11812.145081798
5	77123	23154.511906313545	17493.622855327
5	77151	23160.698551506198	4341.8715327929
5	77198	23171.500312440676	10609.977751237
5	77209	23172.722839356979	6161.0468323846
5	77217	23176.128298467418	2314.458729474
5	77225	23179.372958511321	9270.9839426634
5	77277	23197.451450131482	11832.601180957
5	77305	23207.982061907111	16297.392217359
5	77361	23223.733018807716	14780.682759378
5	77367	23226.353185638435	7828.5741768102
5	77423	23242.567786634364	20940.964666206
5	77476	23261.040897108636	10658.610303461
5	77504	23270.632153276562	2320.2563423333
5	77522	23276.340580458961	7849.2059930104
5	77686	23326.142218192686	4394.1446400416
5	77694	23329.27485643087	4395.5292369393
5	77779	23352.892731617967	10715.347568397
5	77790	23357.43865701949	6223.4253156199
5	77797	23358.707657824846	2322.3118435328
5	77932	23393.418758862855	14017.662770727
5	78038	23427.028160231016	6244.6972946722
5	78069	23435.817075177296	4413.1081918167
5	78111	23445.488799069464	16495.294283479
5	78148	23456.48089576514	9407.2975762225
5	78151	23458.262454637154	4417.7781634337
5	78237	23484.221540222701	4425.4463374287
5	78344	23518.030277015465	15001.276833122
5	78365	23526.731823336715	7944.6879380144
5	78427	23542.944522231827	6282.9964205349
5	78430	23544.857016337114	6284.5953319038
5	78467	23555.457511889012	9455.6097961229
5	78527	23574.341069432728	2346.0908122429
5	78591	23594.024766788639	16609.814976588
5	78636	23608.940551384172	4461.8350161402
5	78788	23653.728255606633	2357.5379088694
5	78843	23671.83474795055	2363.4205672403
5	78881	23681.669011007998	9520.9192628633
5	78896	23685.964962324876	8006.9310533136
5	78975	23707.93717146423	16701.633482299
5	78981	23710.957708347592	6333.1964519307
5	78998	23715.59252790213	2369.9795607162
5	79005	23717.060269219805	12141.881663519
5	79138	23757.045109757786	4480.914978787
5	79157	23765.389116480951	4484.368271403
5	79169	23768.741454175119	12168.389769803
5	79276	23803.782543631463	2380.4079405883
5	79281	23805.179996120563	8060.3129419917
5	79360	23829.52602117118	4508.42949454
5	79405	23844.011173869675	4508.0679680551
5	79668	23915.394962374873	9617.1346737572
5	79706	23928.351240158274	8086.6478491395
5	79801	23960.064254198416	2391.2734105739
5	79859	23973.295336349687	4530.6978595863
5	79887	23983.529825638055	6398.0976621429
5	79910	23991.376388543106	4534.8895865485
5	79927	23996.386042669796	4539.1509305935
5	80011	24023.07848944218	19202.006048885
5	80054	24036.458384191813	8118.7348284982
5	80091	24047.435956291118	6417.9124373059
5	80127	24056.538288852023	9675.2714509095
5	80172	24070.173776280701	6419.8119808979
5	80182	24073.417002190657	16950.949070208
5	80338	24118.72439702135	2403.5728975011
5	80357	24123.159375136722	14470.142918988
5	80452	24149.44767019861	14483.893212738
5	80470	24156.233922951302	18279.679807125
5	80497	24164.303635752393	2419.1488609801
5	80552	24182.292165107473	8176.8398305684
5	80580	24192.265584430292	11126.173248849
5	80615	24203.486733161851	15450.211868924
5	80626	24207.762109868608	6459.739365163
5	80634	24211.181465744979	13501.837729323
5	80689	24228.195168153576	13511.655651652
5	80704	24232.839064688243	18880.157896795
5	80772	24256.259469825967	13518.001743062
5	80915	24295.810431434777	6473.3141595312
5	80939	24304.17763219979	9746.4272596023
5	80980	24314.594793169577	2427.2544408275
5	81481	24461.086706397309	9810.6938243588
5	81496	24465.808916125073	4609.6222983104
5	81507	24470.733995160832	11220.435227874
5	81709	24529.02746335398	15649.029955576
5	81714	24530.790576274689	8280.2404048031
5	81736	24540.244030075143	8288.6901164345
5	81759	24545.185229740288	14717.570401923
5	81797	24558.761279386092	6568.1476172999
5	81809	24562.14673110414	8301.9121503609
5	81838	24570.622259696011	4636.5154382405
5	81880	24583.715917519663	2456.6264294509
5	81888	24586.56063088644	9888.9042641036
5	82018	24626.080227149831	2461.7023975166
5	82035	24630.417368542211	6602.7081325213
5	82040	24632.080192929873	4653.6430913355
5	82064	24638.698362780729	2463.0282936172
5	82072	24641.699766244734	2463.4222414444
5	82095	24650.823428499507	4661.3851833089
5	82146	24666.006031470741	2468.2545730169
5	82336	24720.034951175933	13795.120373583
5	82405	24740.966398267818	2473.0992504989
5	82480	24761.578450896214	6638.2484660548
5	82493	24766.70129654314	4679.2284692785
5	82574	24790.608133412521	8409.0722470902
5	82606	24800.275809334215	2474.7575627064
5	82614	24803.444106272977	2476.8233682694
5	82795	24864.104862600188	17497.991383557
5	82827	24870.487350265678	4701.0732050297
5	82832	24872.482630456608	6679.4644203673
5	82885	24887.813444669169	10028.998936443
5	82919	24896.393540745597	2474.5337179975
5	82937	24902.713322420786	6682.7666485164
5	82991	24918.66835995316	8462.0696812583
5	83064	24939.02591747101	14967.648011694
5	83070	24942.186020841073	4710.1937688661
5	83128	24957.594243554581	8479.8045530064
5	83166	24969.496587103974	11490.72097781
5	83221	24984.37661813255	16823.738370712
5	83251	24993.902838521633	18294.582494503
5	83311	25015.421259400243	2494.8357037413
5	83332	25019.981395537773	15015.461449604
5	83422	25045.940841698641	11515.497471671
5	83476	25061.885711463349	2493.9423188716
5	83622	25107.543047307239	8527.7997948105
5	83685	25125.237468885438	4749.0714503871
5	83708	25132.847451764898	4752.8321053217
5	83718	25136.787386588932	4754.1482297549
5	83839	25173.477821893424	6763.1866243829
5	83929	25196.357374007433	10160.26539611
5	83966	25207.991550995402	17755.869371222
5	83981	25213.106633625359	8570.3431723593
5	83984	25214.640142373361	2512.5244550881
5	83992	25217.826183144182	8574.9381749874
5	84000	25221.037870871454	11596.527372362
5	84078	25242.368065584816	4768.1416349418
5	84103	25249.623171284787	4767.0882262861
5	84106	25251.075472065799	4766.6287686118
5	84135	25262.172163486101	16129.987905604
5	84167	25271.738595895276	6789.1961702088
5	84193	25278.902578393364	10195.543263909
5	84378	25332.309695847326	4791.7065185517
5	84408	25341.921168467025	6811.5702627049
5	84546	25382.142626057187	2532.9264041026
5	84592	25394.5085454205	4812.1370919594
5	84617	25402.254475353095	4811.7059698129
5	84641	25412.039068029258	8651.9852507768
5	84649	25415.209909648258	14221.045754287
5	84723	25437.730255351582	10277.961147597
5	84809	25463.917180315585	6857.5665457389
5	84894	25490.126225709351	14272.819713539
5	84913	25494.863779909158	2556.1722451626
5	84921	25497.992653958121	19341.657183199
5	84969	25510.483276324154	16332.48047214
5	85012	25521.738501715468	4853.8291829611
5	85192	25571.375992202564	22805.556328824
5	85292	25604.816404015375	19424.224737388
5	85318	25614.719023551597	11799.057721442
5	85391	25630.384870899646	25386.875786874
5	85416	25638.277222350417	6911.180609213
5	85430	25641.499580907999	2564.2022525496
5	85600	25688.049685068605	6928.7000099028
5	85703	25717.710638103438	4902.4816614225
5	85821	25749.148185466034	6934.647748038
5	85891	25770.273106810254	17342.769453394
5	85957	25792.50033628213	15495.621259992
5	86001	25806.186840816203	21964.581776559
5	86069	25826.015933142031	13239.086934328
5	86135	25844.507981312823	2591.4754934514
5	86184	25859.725989500423	8786.7636129311
5	86202	25865.711051018525	2588.9344419061
5	86258	25881.660718470987	6980.8972622538
5	86279	25886.04683699346	4914.5820158736
5	86310	25897.61069555859	2593.549905194
5	86377	25918.829146444415	10466.98845217
5	86431	25934.214664281337	2592.0819716901
5	86436	25935.5430427635	6997.6547703054
5	86454	25941.734639145798	6997.1360901928
5	86464	25945.181140906914	7000.3443843751
5	86489	25950.375996158823	18286.428187912
5	86497	25953.225721177265	8826.0195404801
5	86573	25974.577977214374	7009.7371399765
5	86613	25984.281371375911	11977.900709624
5	86663	25998.181757694476	8846.5624037541
5	86694	26008.415982809097	2607.4819240886
5	86724	26020.596371253385	10503.891989875
5	86777	26031.071175678997	13347.00069016
5	86803	26037.556383661172	2608.5095954285
5	86926	26073.095616665474	12028.470329806
5	86970	26085.491203948847	10533.919749595
5	87015	26101.045873696348	7047.3033161783
5	87103	26126.65770740471	10557.161261809
5	87112	26130.896630267418	12056.906122088
5	87155	26145.502247111118	7059.7499222856
5	87236	26169.082154496751	10576.324716829
5	87239	26170.773708202495	13443.593559947
5	87422	26220.153798143185	10593.784771075
5	87482	26236.951741858377	2625.560519652
5	87495	26241.348073918364	2625.572054452
5	87586	26270.623315855108	4985.3283222483
5	87733	26310.881988738844	2632.1596697733
5	87754	26318.69723451733	2636.80472936
5	87773	26323.744917395333	14765.914803383
5	87785	26327.220796863916	22013.162441886
5	87831	26343.349264395604	2644.9847970622
5	87880	26356.668021626579	16881.268682567
5	87893	26361.668078376348	10660.356492872
5	87931	26373.512594682904	10666.418994298
5	87936	26375.408629940072	5013.9210543002
5	87996	26394.560410623619	23811.427389787
5	88006	26398.315680833155	8992.6543458642
5	88241	26471.961175001222	7160.4899826658
5	88284	26483.539242281761	5045.2789567835
5	88351	26508.435604050008	14869.071403772
5	88358	26510.35003594253	19468.853318208
5	88387	26518.073428079484	10737.029735576
5	88468	26542.471511921286	7183.6109408571
5	88476	26545.072313413769	9055.3987165393
5	88511	26556.01513982322	18761.652017487
5	88580	26580.910849453696	7198.5519505982
5	88610	26591.045696052165	13685.907106583
5	88705	26619.003653548101	17055.355748282
5	88745	26633.081283660422	12316.961589068
5	88753	26635.895248874838	10781.883827976
5	88797	26648.336607442054	14944.306519385
5	88818	26657.05470480379	17075.150205074
5	88909	26682.102008599232	24068.098287453
5	88963	26697.967237901504	9096.4730811951
5	88966	26699.219430965188	22751.243347651
5	89110	26741.469564787303	2687.8640279879
5	89131	26746.485842309897	2691.7752586335
5	89136	26748.331162299034	2687.7694511373
5	89167	26758.955289851133	9111.1121567527
5	89341	26809.520033841775	16155.50045629
5	89354	26813.852195501149	19681.586919447
5	89386	26823.415796918057	2701.3801207004
5	89454	26843.254475774435	5123.9898191033
5	89504	26858.800508580548	2707.6250678366
5	89598	26887.19996695165	9160.685013645
5	89632	26896.677716283317	7268.0833435593
5	89646	26899.703687345426	2703.4481492123
5	89672	26909.746218603293	9168.631457234
5	89718	26923.104892799819	5127.5350397398
5	89721	26924.343048860135	15082.992793906
5	89759	26936.908390498723	16217.301530933
5	89832	26959.202981910299	9167.6483680057
5	89850	26966.335787170941	9167.5198049149
5	89886	26976.335489594193	12442.706667507
5	89937	26990.461662361587	19048.361615335
5	89945	26993.209137826974	17268.859917112
5	89963	26999.559994342181	5138.5404388345
5	90043	27024.730470940288	5138.2990507843
5	90053	27027.561758005995	7293.8620726114
5	90058	27028.828515961211	2709.319565617
5	90161	27060.549358479308	21671.6842941
5	90193	27069.333063985409	2719.087973202
5	90208	27073.883589573206	10934.475478808
5	90226	27080.063461593726	2721.6965610724
5	90265	27090.46879096944	7317.0676200863
5	90427	27136.79031469524	5167.6705246714
5	90440	27142.529922069983	13930.653181155
5	90515	27165.433401363157	2729.3285782235
5	90600	27189.902074615845	15221.346080888
5	90622	27196.187014955284	9263.7769219987
5	90627	27197.708382668162	15224.495140967
5	90709	27224.008618500458	5184.149227408
5	90724	27227.905068067836	9275.3198926976
5	90752	27233.885431875477	2743.2287957771
5	90792	27246.911202220622	2745.9012455215
5	90814	27253.792745275613	2747.7608863433
5	90976	27301.703331511469	11042.598841133
5	91036	27318.962676785704	2754.9218384465
5	91123	27345.31978520621	2752.8009649721
5	91128	27347.026068438035	11072.955116225
5	91277	27394.711101511496	2759.0414739026
5	91290	27399.535614024478	9365.4326439313
5	91323	27408.081426647494	2756.9646883892
5	91330	27409.66585054789	14088.914449113
5	91424	27438.207626449877	2757.9007969491
5	91429	27439.757361740993	14108.812071806
5	91504	27461.549706275389	7437.4198707725
5	91601	27490.662672722154	9392.8135078972
5	91625	27496.513113892078	2764.7964259558
5	91628	27498.352910158969	5237.6922407366
5	91731	27529.332231458091	2772.9863219004
5	91748	27533.85052367095	2774.8588534566
5	91888	27576.722243428417	5254.5405658636
5	91977	27604.710601069592	11203.053863514
5	92001	27611.445979137532	2772.4175040353
5	92036	27622.829958553425	9454.7375628036
5	92041	27624.217473937011	15505.989651295
5	92047	27627.646415938063	11214.066005262
5	92067	27633.648639582095	9450.9542635551
5	92263	27686.993100911002	22186.91148531
5	92368	27718.112127877021	9488.4314851711
5	92407	27731.572182877541	7507.9227799674
5	92420	27736.907874980375	7508.2811541159
5	92441	27741.467203087538	2789.9150335015
5	92503	27759.226765612879	5275.4701200959
5	92542	27770.633834300743	2792.6642962415
5	92604	27790.347820067213	9506.3375928798
5	92643	27801.155865508124	5290.0893864988
5	92665	27807.676993971124	14295.939345336
5	92673	27810.517814687446	11294.934475464
5	92683	27814.22734059728	5294.2838352023
5	92781	27846.896076798618	7536.0762853775
5	92823	27858.949689885406	11319.706141339
5	92943	27890.524007225957	9553.3509905433
5	92951	27893.60903791691	9549.7571120179
5	93023	27916.331962046947	7548.3670700759
5	93032	27918.099028833571	7550.0312544126
5	93058	27927.168111679877	5306.6514572757
5	93141	27950.597155093018	5305.6958630154
5	93369	28018.051628129548	22465.118692112
5	93439	28040.679104237435	5331.3751660051
5	93538	28068.519709679658	5342.0839069758
5	93631	28097.059723795007	9611.7930098863
5	93641	28100.033673620771	23056.776630183
5	93670	28107.414182129305	5339.1075858242
5	93727	28124.830563108053	7611.579862967
5	93835	28156.957486574713	7623.6070524722
5	93992	28204.60011636409	7634.1212501941
5	93997	28205.941036191387	5366.5399841546
5	94107	28234.657861649981	7653.5710988625
5	94221	28266.193600270328	2840.1997751483
5	94224	28268.171028169793	14555.440337806
5	94227	28269.823550816429	13115.620401837
5	94230	28271.080766087202	9682.8671466913
5	94249	28278.016446155673	5388.398875639
5	94281	28287.893841858758	2842.923618204
5	94421	28328.76870815995	15938.569802747
5	94475	28341.011263698515	7686.8895506094
5	94543	28359.515474262265	5416.1540640355
5	94580	28370.753463532765	11535.877563874
5	94583	28372.109613575403	7705.0676632339
5	94821	28443.518868405174	5438.773633921
5	94877	28460.134610729653	7740.8334802249
5	94917	28471.796625273478	21656.235523347
5	94966	28488.709697169801	11593.684982811
5	95014	28502.17196909151	22318.5447681
5	95044	28512.983734903475	5439.4657263844
5	95261	28572.940330226896	5453.3730973395
5	95409	28615.866777645784	18376.123516286
5	95537	28656.556842716214	2909.3259947558
5	95580	28666.512401573536	24433.727861038
5	95809	28734.3411858607	2911.604820115
5	95831	28740.557989177658	2912.8846448343
5	95907	28768.058473048163	2917.574152781
5	96037	28801.739158180161	2923.2455584662
5	96172	28841.156636064489	7858.467020987
5	96191	28845.762172644948	14864.55712038
5	96267	28868.131246554657	5526.9939324377
5	96429	28917.303433627999	14913.86802581
5	96472	28929.120169343418	11790.656382737
5	96485	28934.41173563133	9963.5909628727
5	96572	28954.315834738119	2938.3926717801
5	96582	28957.662894216357	5557.1226526153
5	96585	28958.945728908656	2936.6389956514
5	96605	28964.465190467789	17514.77136485
5	96617	28967.923841274149	11802.313536872
5	96681	28986.537740438052	7893.9898600361
5	96702	28994.333760182366	2952.9654952043
5	96880	29044.556648408054	16340.608056601
5	96907	29053.052674222915	17574.409714073
5	96924	29058.266393380417	14999.648521559
5	97021	29089.108096302479	7917.2923501741
5	97046	29097.080790892608	13522.792503317
5	97064	29103.151061424791	7924.4265159334
5	97142	29126.542617116114	7934.5244143093
5	97235	29154.827683029875	2961.1500385181
5	97238	29156.710108530328	5592.7569385523
5	97248	29160.042543962777	7941.2905967497
5	97320	29180.954615329571	15066.888363574
5	97413	29206.714782509017	2976.4606995551
5	97431	29212.904799668113	10064.176804781
5	97443	29216.579150357837	10065.618201469
5	97454	29221.72358918264	13586.924048595
5	97477	29229.771267690876	7956.5160820988
5	97696	29293.341175406235	10099.284162242
5	97796	29321.194083293897	10110.419612447
5	97848	29333.877346042913	5633.1753538436
5	97851	29335.246679614667	2983.3467697225
5	97944	29361.585851439831	2983.0101191543
5	97969	29369.916556995359	16567.53189893
5	98080	29401.0625650065	25865.51286698
5	98117	29411.65477719791	2986.4971017563
5	98155	29423.44075035732	2987.682660516
5	98167	29426.596231845019	15209.679706081
5	98230	29444.386869781462	12010.511248786
5	98265	29456.091938393932	13710.352801314
5	98305	29465.754813451689	2986.8953971772
5	98323	29468.803174505938	20865.586500622
5	98365	29480.596777461278	8039.8176508589
5	98414	29494.306240500132	2984.9135600603
5	98419	29496.264029779094	8041.2426781774
5	98511	29526.514342550556	12038.387438837
5	98571	29543.025162580234	18998.82957975
5	98614	29553.800883721557	2988.4214712486
5	98639	29558.785437667925	10189.251057337
5	98646	29560.499027561952	19010.256313763
5	98659	29565.715078543682	13757.044142202
5	98686	29574.136235122937	13760.591197528
5	98759	29593.680073468943	13761.893401595
5	98796	29604.627493757006	15296.876669127
5	98840	29620.915010892782	16686.339273287
5	98885	29633.259957671348	22549.994189877
5	98907	29639.886992634457	2991.7310460373
5	99163	29711.91446236744	10232.419098259
5	99219	29725.837048056343	8092.9283284029
5	99257	29737.733196930767	21871.087924669
5	99295	29747.30711147058	8097.0020891785
5	99386	29775.301085849844	5698.0855340891
5	99405	29779.908545477494	3007.3099951915
5	99489	29803.623080587007	10256.361803437
5	99539	29819.169704716644	8107.6307736955
5	99608	29837.17207714989	3009.1703581226
5	99702	29866.622546444639	8140.1115640461
5	99707	29868.005405740618	10282.777056764
5	99714	29870.001330882303	19195.402632794
5	99767	29886.856165094106	19203.897636513
5	99788	29895.013506447329	8148.3622341694
5	99818	29901.784161736994	15454.455070437
5	99866	29917.3895588003	3021.290072337
5	99906	29930.629358252314	10295.444524119
5	99997	29955.169504280937	22790.765336305
5	100010	29959.944609973755	22042.395119912
5	100088	29985.397052515661	5728.199626327

