version 2
run Third_exit_8-5-20191114-11:43:00-9035
attr configname Third_exit_8
attr datetime 20191114-11:43:00
attr experiment Third_exit_8
attr inifile omnetpp.ini
attr iterationvars ""
attr iterationvarsf ""
attr measurement ""
attr network ResponseTimeNetwork
attr processid 9035
attr repetition 5
attr replication #5
attr resultdir results
attr runnumber 5
attr seedset 5
param **.Source.interArrivalTime exponential(6s)
param **.jobPriority bernoulli(0.8)
param **.PS.serviceTimeU1 "uniform(1.2s, 2.0s)"
param **.PS.serviceTimeU2 "uniform(2.4s, 2.8s)"
param **.SS1.serviceTime exponential(1.4s)
param **.SS2.serviceTime exponential(2s)
param **.PS.exitProbability bernoulli(0.8)

vector 0 ResponseTimeNetwork.QueueU1 queueLength:vector ETV
attr interpolationmode sample-hold
attr title "queue length, vector"
vector 1 ResponseTimeNetwork.SS1 queueLength:vector ETV
attr interpolationmode sample-hold
attr title "queue length, vector"
vector 2 ResponseTimeNetwork.sink lifeTimeU1:vector ETV
attr interpolationmode none
attr title "lifetime of arrived jobs U1, vector"
attr unit s
vector 3 ResponseTimeNetwork.sink totalServiceTimeU1:vector ETV
attr interpolationmode none
attr title "the total time spent  by arrived jobs U1, vector"
attr unit s
vector 4 ResponseTimeNetwork.sink lifeTime:vector ETV
attr interpolationmode none
attr title "lifetime of arrived jobs, vector"
attr unit s
vector 5 ResponseTimeNetwork.sink totalServiceTime:vector ETV
attr interpolationmode none
attr title "the total time spent  by arrived jobs, vector"
attr unit s
vector 6 ResponseTimeNetwork.QueueU2 queueLength:vector ETV
attr interpolationmode sample-hold
attr title "queue length, vector"
0	32041	10000.82578055748	85
0	32045	10001.430187627552	86
0	32046	10002.371693791088	85
0	32050	10003.413779216487	86
0	32052	10003.440654987371	87
0	32053	10004.021677418251	86
0	32056	10005.680779031676	85
0	32059	10007.381049785402	84
0	32063	10007.783123387619	85
0	32065	10008.312591353868	86
0	32067	10008.976928903369	87
0	32068	10009.35387406369	86
0	32072	10009.525755619166	87
0	32073	10011.321300180082	86
0	32076	10013.032627890085	85
0	32079	10014.57628674676	84
0	32082	10016.183883326513	83
0	32086	10016.501314913814	84
0	32088	10018.05331045068	85
0	32089	10018.172266950098	84
0	32092	10019.957335685578	83
0	32096	10019.988000295856	84
0	32097	10021.317797220324	83
0	32101	10021.332955911156	84
0	32102	10022.881267846388	83
0	32105	10024.762648084399	82
0	32109	10024.803697829723	83
0	32110	10026.393477704202	82
0	32113	10027.617837415462	81
0	32117	10028.673307250403	82
0	32118	10029.545961458249	81
0	32122	10030.417756414259	82
0	32123	10030.853322937539	81
0	32126	10032.593487123786	80
0	32130	10033.602549128911	81
0	32132	10033.797971409771	82
0	32133	10034.112586843608	81
0	32136	10035.481548330201	80
0	32140	10036.801465007501	81
0	32141	10037.337219616039	80
0	32145	10037.995994295272	81
0	32147	10038.174565606178	82
0	32148	10038.945353148332	81
0	32152	10039.192585952242	82
0	32153	10040.192578184245	81
0	32156	10041.495380104719	80
0	32160	10042.200137377306	81
0	32162	10042.682832985072	82
0	32164	10042.705376381398	83
0	32165	10042.811597155979	82
0	32169	10043.569910890671	83
0	32170	10044.473247301778	82
0	32174	10044.606825423765	83
0	32176	10044.797009867996	84
0	32177	10046.425316006517	83
0	32181	10046.676949223111	84
0	32182	10047.66368496382	83
0	32186	10047.873264325992	84
0	32187	10049.626297836204	83
0	32191	10050.628816529573	84
0	32193	10050.695718729494	85
0	32194	10051.351048298751	84
0	32197	10052.909470167023	83
0	32200	10054.121934598696	82
0	32204	10054.500176802246	83
0	32205	10055.995991616335	82
0	32209	10056.146021395325	83
0	32210	10057.672991053585	82
0	32213	10059.670057739887	81
0	32217	10060.69561026496	82
0	32218	10061.546146553021	81
0	32222	10061.745647396629	82
0	32223	10063.431361734692	81
0	32227	10064.399600084451	82
0	32229	10064.467748795355	83
0	32230	10065.105637063656	82
0	32234	10065.476225733429	83
0	32235	10067.008288614091	82
0	32241	10068.190295553076	83
0	32242	10068.563897794497	82
0	32246	10069.128813605713	83
0	32247	10070.167735984375	82
0	32251	10071.019369103525	83
0	32253	10071.500596018034	84
0	32254	10071.586728369457	83
0	32258	10073.358850310735	84
0	32259	10073.451730193396	83
0	32265	10074.957711840113	84
0	32266	10074.974936273892	83
0	32269	10076.738481581595	82
0	32273	10077.750172797606	83
0	32274	10078.423622007121	82
0	32278	10079.377102447982	83
0	32279	10079.94721734171	82
0	32283	10080.987399754726	83
0	32284	10081.582814343471	82
0	32288	10081.833805861612	83
0	32290	10082.744707711295	84
0	32291	10083.450290672306	83
0	32295	10083.986057677931	84
0	32297	10085.130991869573	85
0	32298	10085.150083631288	84
0	32302	10086.05199432083	85
0	32303	10086.613956337247	84
0	32307	10087.474120210006	85
0	32309	10087.752776575455	86
0	32311	10087.833934040206	87
0	32312	10088.513999357831	86
0	32316	10088.699926525053	87
0	32317	10090.278203192737	86
0	32320	10091.664802248415	85
0	32324	10092.199800187655	86
0	32325	10093.304944456939	85
0	32329	10093.874186841231	86
0	32330	10095.106230068218	85
0	32334	10095.530852312071	86
0	32335	10096.333693049487	85
0	32338	10097.678619085823	84
0	32341	10098.979956939083	83
0	32345	10100.18134188551	84
0	32346	10100.642635835346	83
0	32349	10101.846274168614	82
0	32353	10102.869318150504	83
0	32354	10103.213119494367	82
0	32358	10103.946015969344	83
0	32359	10104.544414012145	82
0	32363	10104.764159976272	83
0	32365	10105.231905082309	84
0	32366	10106.281309535924	83
0	32370	10107.284485809706	84
0	32371	10108.003702181402	83
0	32375	10108.090729862334	84
0	32376	10109.690640146668	83
0	32379	10111.057329399521	82
0	32382	10112.461367598186	81
0	32386	10114.213021347182	82
0	32387	10114.338884671974	81
0	32390	10116.328010118949	80
0	32393	10118.030355736064	79
0	32397	10119.40792538454	80
0	32398	10119.608429207104	79
0	32402	10120.493508755206	80
0	32404	10120.554150643119	81
0	32405	10121.136797764907	80
0	32409	10122.449240192047	81
0	32410	10122.96297773012	80
0	32414	10124.39079095879	81
0	32416	10124.50015869147	82
0	32417	10124.857513421597	81
0	32421	10125.211643977211	82
0	32423	10125.230929258865	83
0	32425	10126.090594829658	84
0	32426	10126.384406830752	83
0	32430	10128.08201528885	84
0	32431	10128.146120076636	83
0	32435	10128.355918164278	84
0	32436	10129.724865640896	83
0	32440	10130.86006904131	84
0	32441	10131.063277954991	83
0	32444	10132.35471979865	82
0	32448	10132.776080352786	83
0	32449	10133.769193286832	82
0	32453	10134.049668981963	83
0	32454	10135.263021986384	82
0	32457	10136.784846907679	81
0	32460	10138.372114788007	80
0	32464	10139.082895678318	81
0	32465	10140.328298617166	80
0	32469	10140.549392202084	81
0	32471	10141.478413155946	82
0	32473	10141.556849987439	83
0	32474	10142.302707241115	82
0	32477	10144.067256077018	81
0	32480	10145.31516223104	80
0	32483	10146.836342417088	79
0	32487	10146.88375894945	80
0	32489	10147.074060710241	81
0	32490	10148.554316271295	80
0	32494	10149.793959420411	81
0	32495	10150.323649220926	80
0	32499	10150.464833464062	81
0	32500	10152.059342800279	80
0	32503	10153.695053046767	79
0	32506	10154.898500559304	78
0	32509	10156.707688565377	77
0	32512	10157.976560743723	76
0	32516	10158.73474774619	77
0	32517	10159.257652966689	76
0	32521	10160.523525401687	77
0	32522	10160.9386918394	76
0	32525	10162.605655113804	75
0	32529	10162.909505333666	76
0	32531	10163.344033211869	77
0	32533	10163.618429395047	78
0	32535	10164.042464013601	79
0	32536	10164.566465135674	78
0	32540	10164.725967977515	79
0	32542	10165.433695177029	80
0	32543	10166.212819996486	79
0	32547	10166.311431445053	80
0	32550	10168.090005984167	79
0	32554	10168.186952455745	80
0	32556	10169.549013162321	81
0	32557	10169.966405462856	80
0	32560	10171.307333930778	79
0	32564	10172.916433835454	80
0	32565	10173.042389337915	79
0	32569	10174.163146334392	80
0	32570	10174.654445795539	79
0	32573	10176.168596325639	78
0	32576	10177.64910825492	77
0	32579	10179.480545985337	76
0	32583	10180.787579989032	77
0	32584	10181.372700251463	76
0	32588	10181.755124681013	77
0	32589	10182.995721734884	76
0	32593	10183.128226777998	77
0	32596	10184.470398370373	76
0	32601	10186.425094552162	75
0	32604	10188.419321383732	74
0	32610	10189.568407601758	75
0	32611	10190.008043125095	74
0	32615	10190.316127961504	75
0	32617	10191.087483637173	76
0	32619	10191.697128823683	77
0	32620	10191.954721988002	76
0	32623	10193.195676235119	75
0	32627	10193.413631871812	76
0	32629	10193.9229961063	77
0	32630	10194.951873116205	76
0	32634	10195.458047483933	77
0	32635	10196.174378140839	76
0	32639	10196.972840046933	77
0	32640	10198.105699667903	76
0	32643	10199.532302461015	75
0	32647	10201.086790235256	76
0	32648	10201.49197425303	75
0	32651	10202.827791596585	74
0	32655	10203.329237735218	75
0	32656	10204.44339328763	74
0	32659	10205.956181647078	73
0	32663	10206.430556852363	74
0	32664	10207.63223676049	73
0	32667	10209.136470427186	72
0	32671	10210.076792793371	73
0	32673	10210.253550411742	74
0	32674	10210.495904356249	73
0	32677	10212.317836803951	72
0	32680	10214.108183086299	71
0	32683	10215.737890344307	70
0	32686	10217.062727805048	69
0	32690	10217.219342462238	70
0	32692	10217.715524590434	71
0	32694	10218.366106912293	72
0	32695	10218.424405662164	71
0	32699	10219.109999201364	72
0	32701	10219.353217968905	73
0	32702	10219.884979344353	72
0	32706	10220.612266958582	73
0	32707	10221.810378861993	72
0	32711	10222.366129601965	73
0	32712	10223.648326672807	72
0	32716	10224.094127660306	73
0	32717	10225.11419192814	72
0	32721	10225.595158067237	73
0	32722	10226.337000051706	72
0	32726	10226.464130719209	73
0	32728	10226.673557151552	74
0	32729	10228.139561443969	73
0	32733	10229.726247134412	74
0	32734	10229.917346477702	73
0	32739	10231.633111884266	72
0	32742	10232.938596540138	71
0	32746	10234.113533156733	72
0	32747	10234.214626823	71
0	32751	10234.741487954506	72
0	32753	10234.958905335501	73
0	32754	10235.854922866828	72
0	32758	10237.152773200496	73
0	32759	10237.742748244672	72
0	32762	10239.070267398476	71
0	32766	10239.32894312251	72
0	32768	10240.978218613688	73
0	32769	10241.003528747901	72
0	32773	10241.210953984429	73
0	32775	10241.595244588321	74
0	32777	10242.805703352467	75
0	32778	10242.882583832934	74
0	32782	10242.912017255683	75
0	32783	10244.78056293857	74
0	32787	10244.801785202408	75
0	32788	10246.61522270479	74
0	32791	10248.130468000106	73
0	32795	10248.539092931351	74
0	32796	10249.474272190786	73
0	32800	10249.705252053924	74
0	32801	10251.446685427993	73
0	32805	10252.301952910182	74
0	32806	10253.032368365682	73
0	32812	10254.400112457536	74
0	32813	10254.725244813978	73
0	32818	10256.243427011936	72
0	32823	10257.935990300222	71
0	32826	10259.433787733509	70
0	32829	10261.352894401557	69
0	32833	10262.780681467834	70
0	32834	10263.05429489725	69
0	32837	10264.664179478034	68
0	32841	10265.88278979643	69
0	32842	10266.656051757007	68
0	32845	10267.995620023838	67
0	32849	10268.058877142876	68
0	32850	10269.336094145483	67
0	32854	10270.534454453011	68
0	32855	10270.876149995259	67
0	32859	10272.594190872405	68
0	32860	10272.845496541827	67
0	32864	10273.793455219212	68
0	32865	10274.191892588145	67
0	32868	10275.887306474342	66
0	32872	10276.14309341732	67
0	32873	10277.178725379339	66
0	32877	10277.642355028283	67
0	32878	10279.113667640655	66
0	32882	10280.744289514774	67
0	32883	10280.786240971095	66
0	32886	10282.166303572624	65
0	32890	10282.19559197171	66
0	32891	10283.440373697138	65
0	32894	10284.714970141283	64
0	32898	10285.148880981336	65
0	32900	10285.394570408054	66
0	32901	10286.122190949141	65
0	32905	10287.11499858474	66
0	32908	10287.393485053263	65
0	32912	10287.483146970041	66
0	32914	10288.576715996757	67
0	32915	10288.899831284031	66
0	32919	10290.219184019958	67
0	32920	10290.816429021775	66
0	32924	10292.312649586072	67
0	32925	10292.386574641063	66
0	32928	10293.974545462809	65
0	32932	10294.510540831187	66
0	32934	10294.6859044269	67
0	32935	10295.463235783025	66
0	32938	10296.682990421175	65
0	32942	10296.808593973474	66
0	32944	10297.606229208703	67
0	32945	10298.163514878421	66
0	32948	10299.66891634111	65
0	32951	10300.950763304538	64
0	32954	10302.579014690972	63
0	32958	10303.32041826963	64
0	32960	10303.798825501157	65
0	32962	10304.434866097655	66
0	32963	10304.506690892956	65
0	32966	10306.061292259774	64
0	32970	10306.954647044368	65
0	32972	10307.066571896912	66
0	32973	10307.284047974839	65
0	32976	10308.907774942189	64
0	32980	10309.16946471194	65
0	32982	10309.56724291248	66
0	32985	10310.773044554896	65
0	32989	10311.506110883301	66
0	32990	10312.627722495987	65
0	32994	10313.647899287382	66
0	32995	10314.269622427604	65
0	32999	10314.978392249061	66
0	33000	10315.853389837227	65
0	33003	10317.639190785594	64
0	33006	10318.957566093847	63
0	33010	10319.900650067669	64
0	33012	10319.910127766754	65
0	33014	10320.758645736671	66
0	33015	10320.928971270665	65
0	33018	10322.32606660892	64
0	33022	10323.0518500047	65
0	33024	10324.076260978128	66
0	33025	10324.165363320715	65
0	33029	10325.142739222785	66
0	33031	10325.447769124652	67
0	33032	10325.751916853531	66
0	33036	10326.599604171913	67
0	33037	10327.655201132602	66
0	33041	10329.231680125503	67
0	33042	10329.622240736156	66
0	33046	10330.355936705703	67
0	33048	10330.485759912374	68
0	33049	10330.95502624531	67
0	33052	10332.328330660432	66
0	33056	10332.549158595649	67
0	33058	10333.886637879659	68
0	33059	10333.920740188293	67
0	33063	10334.609717115036	68
0	33064	10335.755578212634	67
0	33068	10336.785069704459	68
0	33069	10337.180985580206	67
0	33073	10338.253084631089	68
0	33074	10338.687776672475	67
0	33078	10339.123938797028	68
0	33079	10339.972606053583	67
0	33083	10340.261035355329	68
0	33084	10341.32813931667	67
0	33088	10341.786425636531	68
0	33090	10341.882175400247	69
0	33091	10343.224572160474	68
0	33095	10344.638394465754	69
0	33096	10345.185544106557	68
0	33100	10346.283229392454	69
0	33101	10346.459342103272	68
0	33104	10348.203170642264	67
0	33107	10349.478351870559	66
0	33111	10349.506895215143	67
0	33113	10349.793956099792	68
0	33114	10351.472472525209	67
0	33118	10352.699468448412	68
0	33119	10352.991571398273	67
0	33122	10354.389701171413	66
0	33126	10354.554897157683	67
0	33127	10355.926639324062	66
0	33131	10356.765066949842	67
0	33132	10357.280711128571	66
0	33136	10357.671049926057	67
0	33139	10358.874593040542	66
0	33143	10359.159916865161	67
0	33145	10359.565578034389	68
0	33147	10359.788714529165	69
0	33148	10360.378427138747	68
0	33152	10360.432636647641	69
0	33154	10361.139564536695	70
0	33155	10362.135741509878	69
0	33159	10362.867702811472	70
0	33160	10364.062598479361	69
0	33164	10364.16573012445	70
0	33165	10366.024856115141	69
0	33169	10367.21990517008	70
0	33170	10367.991423118309	69
0	33173	10369.578235938781	68
0	33177	10370.101391309868	69
0	33179	10370.988531046422	70
0	33180	10371.281388599434	69
0	33184	10371.398135036396	70
0	33186	10371.681235447034	71
0	33187	10372.871419560173	70
0	33191	10373.315164494933	71
0	33192	10374.19832708911	70
0	33196	10374.237890307093	71
0	33197	10375.526195604177	70
0	33201	10376.135008599167	71
0	33203	10376.580594078449	72
0	33204	10377.048196604485	71
0	33207	10378.909030391286	70
0	33213	10380.71664952161	71
0	33214	10380.81494376083	70
0	33217	10382.156044363427	69
0	33221	10382.406741584192	70
0	33222	10383.562552085902	69
0	33225	10385.032410526286	68
0	33228	10386.603185191016	67
0	33232	10387.617803817905	68
0	33234	10388.305210388972	69
0	33235	10388.598992568638	68
0	33238	10390.059788542997	67
0	33242	10390.258761272403	68
0	33244	10391.721617697861	69
0	33245	10391.737542174768	68
0	33249	10392.567271905017	69
0	33251	10392.748052567791	70
0	33252	10392.962835251179	69
0	33255	10394.166916377481	68
0	33258	10395.67122540978	67
0	33261	10397.246637713921	66
0	33265	10397.499639922968	67
0	33266	10398.900349852268	66
0	33270	10398.910322401527	67
0	33272	10399.258459677529	68
0	33274	10400.093204263334	69
0	33275	10400.384547206398	68
0	33281	10400.810094557724	69
0	33282	10401.944982113328	68
0	33286	10402.463468208593	69
0	33287	10403.226943011407	68
0	33290	10405.089393905375	67
0	33294	10405.22360164868	68
0	33295	10406.744708289217	67
0	33299	10407.159925774439	68
0	33300	10408.357693156797	67
0	33303	10410.152134305436	66
0	33306	10411.894883411202	65
0	33309	10413.269742967385	64
0	33313	10414.038068014213	65
0	33315	10414.047315690081	66
0	33317	10414.909817064678	67
0	33318	10414.983770344603	66
0	33321	10416.251913111854	65
0	33325	10417.055974200526	66
0	33327	10417.358591165559	67
0	33328	10417.933476699527	66
0	33331	10419.483737239066	65
0	33335	10420.05160627446	66
0	33336	10420.846188131544	65
0	33340	10422.123904265043	66
0	33341	10422.322585625584	65
0	33345	10422.840624886054	66
0	33346	10424.217314248915	65
0	33350	10425.328841591992	66
0	33351	10426.162401829857	65
0	33356	10427.413638538319	64
0	33360	10428.01419870181	65
0	33361	10428.874860955599	64
0	33365	10429.584796300417	65
0	33367	10429.702678719621	66
0	33369	10429.867574045639	67
0	33370	10430.785700314502	66
0	33374	10431.406441333167	67
0	33375	10432.011412873129	66
0	33379	10433.024875428001	67
0	33380	10433.591332780207	66
0	33384	10433.744140833597	67
0	33385	10435.451955591897	66
0	33389	10436.634139418335	67
0	33390	10437.177387461449	66
0	33393	10438.425477437685	65
0	33396	10439.871341658207	64
0	33400	10439.923413448865	65
0	33401	10441.31591596325	64
0	33405	10441.891588771555	65
0	33406	10442.585749333176	64
0	33410	10444.105589024851	65
0	33411	10444.53661096451	64
0	33415	10445.124126437362	65
0	33416	10445.797922190476	64
0	33420	10446.584203224071	65
0	33422	10447.388676133317	66
0	33423	10447.674876057368	65
0	33427	10447.837842354862	66
0	33428	10448.996276508656	65
0	33431	10450.792232589063	64
0	33435	10451.902077580419	65
0	33436	10452.620154891361	64
0	33440	10453.268994898501	65
0	33442	10453.378196602726	66
0	33443	10454.278670026746	65
0	33447	10455.264610867722	66
0	33448	10456.204241156403	65
0	33452	10456.977966945115	66
0	33454	10457.097584709533	67
0	33456	10457.31307647365	68
0	33457	10457.420720309775	67
0	33461	10458.153536120756	68
0	33462	10459.264749608759	67
0	33466	10459.924654288247	68
0	33468	10460.956353280782	69
0	33469	10461.239470096875	68
0	33475	10461.690752353414	69
0	33476	10462.777310245309	68
0	33480	10463.300913383985	69
0	33482	10464.220399467947	70
0	33483	10464.223699952487	69
0	33488	10465.676292433601	68
0	33492	10467.076973294961	69
0	33493	10467.201790476974	68
0	33497	10468.550230323139	69
0	33498	10468.87078447194	68
0	33502	10468.890909989347	69
0	33504	10469.873135424052	70
0	33505	10470.814053533237	69
0	33509	10471.033946259565	70
0	33511	10472.024058958963	71
0	33512	10472.487600161518	70
0	33516	10472.698181549751	71
0	33517	10474.349661351192	70
0	33521	10475.224210075227	71
0	33522	10475.602423585962	70
0	33526	10475.78686525467	71
0	33527	10476.848158321354	70
0	33531	10478.297124896977	71
0	33532	10478.39642767721	70
0	33536	10478.985593451752	71
0	33538	10479.435110467354	72
0	33539	10479.764009889599	71
0	33542	10480.976715972658	70
0	33546	10482.668745452261	71
0	33547	10482.708580854732	70
0	33551	10484.436136521764	71
0	33552	10484.458765685383	70
0	33556	10485.013451411175	71
0	33558	10485.945950411126	72
0	33559	10486.001045296725	71
0	33563	10487.268248797971	72
0	33564	10487.933679723192	71
0	33568	10488.226775271465	72
0	33569	10489.508431587007	71
0	33572	10491.431201666419	70
0	33575	10492.650939274218	69
0	33578	10493.882497214165	68
0	33581	10495.360321612481	67
0	33584	10497.258125131961	66
0	33588	10497.7616824124	67
0	33590	10498.284609555501	68
0	33592	10498.46835110679	69
0	33593	10499.219951265875	68
0	33596	10500.526494355324	67
0	33599	10502.284814749855	66
0	33602	10503.802662622008	65
0	33606	10503.98896906268	66
0	33607	10505.746129850868	65
0	33611	10506.55068909806	66
0	33613	10506.965489751858	67
0	33614	10507.222153992962	66
0	33618	10507.225913708008	67
0	33620	10507.585656103562	68
0	33621	10509.007268123712	67
0	33624	10510.836561160359	66
0	33628	10511.246666526397	67
0	33630	10511.52223568543	68
0	33631	10512.566515504393	67
0	33635	10513.894434984154	68
0	33636	10514.064293774414	67
0	33641	10515.394330821383	66
0	33645	10515.680920745417	67
0	33646	10517.041271213639	66
0	33650	10517.634291603152	67
0	33651	10518.379333232354	66
0	33655	10518.383720474418	67
0	33656	10520.081348435592	66
0	33660	10520.369049437128	67
0	33662	10520.736918666705	68
0	33663	10521.708555225667	67
0	33667	10521.876639766586	68
0	33668	10522.97643964329	67
0	33672	10523.690469916534	68
0	33675	10524.633886034053	67
0	33679	10525.065330981258	68
0	33680	10526.294409118977	67
0	33684	10526.351082904841	68
0	33686	10527.494469714026	69
0	33687	10528.220897909266	68
0	33691	10528.839297816032	69
0	33692	10529.560784652283	68
0	33695	10531.31611296424	67
0	33699	10531.317428520646	68
0	33701	10532.52828817213	69
0	33703	10532.613346271197	70
0	33704	10533.278274901782	69
0	33708	10533.316611907712	70
0	33709	10534.675689429615	69
0	33712	10535.885852147837	68
0	33716	10536.173937905786	69
0	33718	10536.463964949945	70
0	33719	10537.515227310371	69
0	33722	10539.482441950415	68
0	33726	10539.875810350221	69
0	33728	10540.612904393071	70
0	33729	10541.470062224579	69
0	33732	10543.276432120253	68
0	33736	10543.801530930127	69
0	33737	10545.223699453299	68
0	33741	10546.563696417217	69
0	33742	10546.619954579149	68
0	33746	10546.870326701547	69
0	33748	10547.217517436591	70
0	33750	10547.703789940758	71
0	33751	10548.002386312385	70
0	33755	10549.19945821228	71
0	33756	10549.788383315516	70
0	33760	10550.970087050623	71
0	33761	10551.663438521524	70
0	33765	10551.932500708959	71
0	33766	10553.021009067644	70
0	33770	10554.29017448345	71
0	33771	10554.734742577758	70
0	33774	10556.662784863647	69
0	33778	10556.825827940777	70
0	33781	10558.448866912361	69
0	33784	10559.78469633666	68
0	33788	10559.944936088453	69
0	33790	10561.056119629254	70
0	33791	10561.658657864306	69
0	33795	10562.016664239379	70
0	33796	10563.572725732822	69
0	33799	10565.03107821421	68
0	33803	10565.258781894688	69
0	33804	10566.509556127538	68
0	33807	10568.112272991438	67
0	33811	10568.491967196684	68
0	33812	10569.628434488003	67
0	33816	10571.014586075743	68
0	33819	10571.07390176506	67
0	33822	10572.590749646176	66
0	33826	10572.832289099945	67
0	33827	10574.584603702288	66
0	33831	10574.92758674041	67
0	33833	10575.11314568959	68
0	33834	10575.864364767644	67
0	33838	10576.550481728961	68
0	33842	10577.293103325889	69
0	33843	10577.512198659043	68
0	33846	10579.179956654283	67
0	33849	10581.02464964279	66
0	33853	10581.217368171142	67
0	33854	10582.441011664281	66
0	33857	10584.366023342135	65
0	33860	10586.016834676276	64
0	33866	10587.748022667411	65
0	33867	10587.748820028651	64
0	33871	10588.467828812263	65
0	33873	10588.694982780813	66
0	33874	10589.020745563145	65
0	33878	10589.834156035974	66
0	33879	10590.334579984109	65
0	33883	10590.607338245047	66
0	33884	10592.331522468674	65
0	33888	10592.353735156593	66
0	33890	10592.864670166887	67
0	33891	10594.003238303411	66
0	33895	10594.766859592905	67
0	33896	10595.403955958049	66
0	33900	10595.466712855101	67
0	33902	10596.497782175336	68
0	33903	10597.266128617536	67
0	33906	10599.219326707918	66
0	33909	10600.475556209881	65
0	33913	10600.490929928061	66
0	33915	10600.51327526147	67
0	33917	10601.508838121424	68
0	33918	10601.745967643719	67
0	33922	10602.069838337447	68
0	33923	10602.981654357921	67
0	33926	10604.535218293231	66
0	33930	10605.650254315355	67
0	33931	10606.255827607226	66
0	33935	10607.52624043495	67
0	33936	10608.182929629099	66
0	33939	10609.84129635581	65
0	33943	10611.06076733222	66
0	33945	10611.527535747457	67
0	33946	10611.650313247006	66
0	33950	10612.604447799143	67
0	33951	10613.350185110803	66
0	33955	10613.725916645524	67
0	33956	10614.888272677372	66
0	33959	10616.336778319823	65
0	33963	10616.897689679841	66
0	33965	10617.094978808441	67
0	33966	10617.542991304035	66
0	33972	10618.394719830146	67
0	33974	10619.044777687729	68
0	33975	10619.343277479532	67
0	33979	10620.466134754122	68
0	33980	10620.96712914371	67
0	33984	10622.09866093807	68
0	33985	10622.34539370426	67
0	33988	10624.135206549624	66
0	33992	10625.330751656219	67
0	33993	10626.128646221021	66
0	33997	10626.306089664668	67
0	33999	10627.467218180374	68
0	34000	10627.869965990269	67
0	34003	10629.194133169585	66
0	34006	10630.933870464572	65
0	34009	10632.762080610738	64
0	34012	10634.414037281097	63
0	34015	10635.705660170325	62
0	34019	10635.963275993874	63
0	34021	10636.384900032003	64
0	34022	10637.151604997375	63
0	34026	10637.342425579272	64
0	34028	10637.428463320723	65
0	34029	10638.551558288754	64
0	34033	10639.036752355534	65
0	34035	10639.328034548649	66
0	34036	10640.369983484977	65
0	34039	10641.593765555331	64
0	34042	10642.885071270177	63
0	34046	10642.977010395062	64
0	34047	10644.330829113172	63
0	34051	10644.337657383341	64
0	34053	10644.566424137328	65
0	34055	10645.774179371212	66
0	34056	10645.94974812028	65
0	34060	10646.021091314535	66
0	34061	10647.490902343402	65
0	34065	10647.938502033926	66
0	34066	10649.269418263072	65
0	34070	10649.324848379623	66
0	34071	10650.774341495903	65
0	34074	10652.150240589315	64
0	34078	10652.251882345996	65
0	34079	10653.591180155436	64
0	34082	10655.352309152866	63
0	34085	10656.665110105099	62
0	34088	10658.553634571666	61
0	34092	10658.574475587476	62
0	34094	10658.594728044991	63
0	34095	10659.940457732985	62
0	34099	10660.000500706184	63
0	34101	10660.18983745174	64
0	34103	10660.874173498645	65
0	34104	10661.492828378836	64
0	34108	10661.497294726187	65
0	34110	10661.567602257731	66
0	34112	10661.694981399158	67
0	34115	10662.798009782108	66
0	34119	10663.777595305937	67
0	34120	10664.170158810365	66
0	34124	10664.738585230222	67
0	34125	10666.016722808043	66
0	34129	10666.068894803722	67
0	34130	10667.335322844247	66
0	34133	10668.800419886048	65
0	34136	10670.271498993608	64
0	34140	10670.433029534162	65
0	34143	10672.168283572803	64
0	34147	10673.006799939482	65
0	34149	10673.3477273729	66
0	34150	10673.538840685795	65
0	34156	10675.212101960138	66
0	34157	10675.42339469717	65
0	34160	10676.968125934351	64
0	34164	10677.669637667159	65
0	34166	10678.036842742282	66
0	34167	10678.625697121408	65
0	34171	10678.839243614136	66
0	34174	10680.456008021917	65
0	34178	10681.046942559935	66
0	34180	10681.091857010963	67
0	34181	10682.288384695548	66
0	34185	10682.454238579343	67
0	34186	10683.78371377905	66
0	34190	10684.929133442024	67
0	34191	10685.143814773868	66
0	34195	10685.217386356187	67
0	34196	10686.577400109555	66
0	34200	10687.692262473629	67
0	34201	10688.285439428139	66
0	34205	10689.508818015409	67
0	34206	10690.221967615012	66
0	34209	10692.054272053961	65
0	34213	10692.929173622681	66
0	34217	10693.405525500276	67
0	34219	10693.474325084612	68
0	34221	10693.619587871755	69
0	34222	10693.636300493602	68
0	34225	10695.633459201467	67
0	34228	10697.575409309205	66
0	34232	10698.053536293384	67
0	34233	10699.079828483995	66
0	34237	10699.221505624945	67
0	34239	10700.188138905238	68
0	34240	10700.548893309396	67
0	34244	10700.74369869481	68
0	34245	10702.126211429585	67
0	34249	10702.16751989892	68
0	34250	10703.912909471255	67
0	34254	10704.722758136489	68
0	34256	10705.302784585838	69
0	34257	10705.392115168657	68
0	34260	10706.635791587282	67
0	34264	10706.683353112726	68
0	34265	10708.21836591569	67
0	34269	10708.283626618559	68
0	34271	10708.934705492509	69
0	34272	10709.878020408202	68
0	34275	10711.611062978964	67
0	34279	10711.976988935192	68
0	34282	10713.383184231456	67
0	34286	10713.954621061533	68
0	34287	10715.170080135028	67
0	34291	10715.845343826735	68
0	34292	10716.410523015644	67
0	34295	10718.090137214597	66
0	34299	10718.841157846898	67
0	34300	10719.292266893211	66
0	34303	10720.784879915799	65
0	34309	10722.158851624355	66
0	34310	10722.676528691138	65
0	34313	10724.044090995203	64
0	34317	10724.210061405003	65
0	34319	10725.181970039929	66
0	34320	10725.554160682122	65
0	34324	10725.958174282145	66
0	34326	10726.170722490432	67
0	34327	10727.459067656669	66
0	34331	10727.88150079947	67
0	34333	10727.945092413838	68
0	34335	10729.223725015808	69
0	34336	10729.284783627848	68
0	34340	10731.188279127952	69
0	34341	10731.278676038246	68
0	34345	10731.935396075664	69
0	34347	10732.196954187395	70
0	34348	10732.73709937391	69
0	34352	10733.269970890479	70
0	34353	10734.731469127546	69
0	34357	10735.133681595348	70
0	34358	10735.953043459366	69
0	34362	10736.092945705283	70
0	34363	10737.570373905274	69
0	34367	10738.561846597925	70
0	34369	10738.742319322758	71
0	34370	10739.511198207932	70
0	34374	10740.369126639787	71
0	34376	10740.544570038612	72
0	34378	10741.132439419319	73
0	34379	10741.404607529575	72
0	34383	10742.015055778101	73
0	34384	10742.718071605833	72
0	34388	10743.325913011146	73
0	34389	10744.254459370123	72
0	34393	10744.463248694927	73
0	34395	10744.570898209212	74
0	34396	10745.999636928746	73
0	34400	10746.28406377805	74
0	34403	10747.629703276613	73
0	34406	10748.966217965269	72
0	34409	10750.609928116025	71
0	34413	10751.898658452324	72
0	34414	10752.451049986304	71
0	34418	10753.693537614147	72
0	34419	10754.428964604446	71
0	34422	10755.969230746859	70
0	34426	10756.448745395241	71
0	34428	10756.543482199075	72
0	34429	10757.825571654746	71
0	34433	10757.864815749263	72
0	34434	10759.191875248784	71
0	34438	10759.552402331708	72
0	34440	10759.666380970557	73
0	34441	10760.536206563758	72
0	34444	10762.015866480405	71
0	34447	10763.237357594269	70
0	34451	10764.329467564621	71
0	34452	10764.805028527612	70
0	34456	10765.556023313687	71
0	34457	10766.647229815284	70
0	34460	10767.879297967451	69
0	34464	10768.173638085319	70
0	34466	10768.731424194868	71
0	34468	10768.832644259106	72
0	34469	10769.878690628158	71
0	34473	10771.483120323001	72
0	34474	10771.677156875106	71
0	34478	10773.181501526675	72
0	34479	10773.510337731997	71
0	34482	10774.858684206391	70
0	34486	10774.926301325926	71
0	34488	10775.041631860723	72
0	34489	10776.281083948175	71
0	34493	10776.325726769901	72
0	34494	10777.597278218726	71
0	34498	10778.585464891272	72
0	34499	10779.48019785435	71
0	34503	10779.8368139431	72
0	34504	10781.452120399485	71
0	34508	10781.56498868116	72
0	34511	10783.015106729987	71
0	34515	10783.265458399314	72
0	34516	10784.639066188793	71
0	34519	10786.579109424922	70
0	34523	10787.244935120394	71
0	34524	10787.949294492054	70
0	34528	10789.347276530584	71
0	34529	10789.67497714759	70
0	34535	10790.616049182053	71
0	34536	10791.238583447609	70
0	34539	10793.220130441535	69
0	34542	10794.980437202204	68
0	34547	10796.440269875538	67
0	34551	10796.819560801457	68
0	34552	10798.330777981889	67
0	34556	10798.663720885609	68
0	34557	10799.819855272782	67
0	34560	10801.173190864933	66
0	34564	10801.689539605479	67
0	34565	10802.555688571384	66
0	34569	10803.565668418685	67
0	34570	10803.909071954166	66
0	34574	10804.122161023154	67
0	34576	10804.649421058632	68
0	34578	10805.275021559216	69
0	34580	10805.409528367232	70
0	34581	10805.486997446803	69
0	34585	10806.320545580285	70
0	34586	10806.877513878619	69
0	34590	10806.996547613198	70
0	34591	10808.10152976924	69
0	34594	10809.402550354799	68
0	34598	10809.805893709979	69
0	34600	10811.135847488053	70
0	34602	10811.218073182487	71
0	34603	10811.345391107177	70
0	34606	10813.31818354932	69
0	34609	10814.568462997688	68
0	34613	10814.679259372961	69
0	34614	10816.250528564131	68
0	34618	10817.615237810428	69
0	34619	10818.098656466803	68
0	34622	10819.803554424098	67
0	34626	10820.617767036947	68
0	34628	10820.882123240074	69
0	34629	10821.0287434457	68
0	34633	10822.401448717106	69
0	34634	10822.928746816901	68
0	34638	10823.902381113893	69
0	34640	10824.260168076322	70
0	34641	10824.670594979649	69
0	34644	10826.33304845245	68
0	34652	10827.762203578829	69
0	34653	10828.311067164516	68
0	34657	10828.871865517102	69
0	34658	10830.15986200889	68
0	34662	10830.277538909556	69
0	34663	10831.531108325919	68
0	34666	10833.15021123459	67
0	34669	10834.8037362883	66
0	34673	10835.099067045758	67
0	34675	10836.261840400218	68
0	34677	10836.268642387709	69
0	34678	10836.702348215891	68
0	34682	10836.788773453171	69
0	34683	10838.094477067528	68
0	34686	10839.49247217608	67
0	34689	10840.777597162326	66
0	34692	10842.538297318493	65
0	34696	10842.822951087334	66
0	34698	10843.672931923993	67
0	34700	10843.698868734223	68
0	34701	10843.853234981199	67
0	34704	10845.099357976032	66
0	34708	10845.137377357278	67
0	34710	10845.950949369274	68
0	34712	10846.541330337672	69
0	34713	10846.797696695862	68
0	34716	10848.064864520555	67
0	34719	10849.936685441633	66
0	34722	10851.780222699431	65
0	34726	10851.913147175952	66
0	34728	10852.06700430091	67
0	34729	10853.088917254296	66
0	34733	10853.401453041448	67
0	34735	10853.652598278761	68
0	34737	10854.252694071273	69
0	34738	10854.416037843202	68
0	34742	10855.009359195269	69
0	34743	10855.619720677485	68
0	34747	10857.513987759463	69
0	34748	10857.539382466314	68
0	34752	10857.694531925466	69
0	34753	10858.750475321909	68
0	34757	10858.833637361534	69
0	34759	10859.051940362469	70
0	34761	10859.987665387179	71
0	34762	10860.202376935644	70
0	34765	10861.875351621037	69
0	34771	10862.927218808103	70
0	34772	10863.653399917123	69
0	34775	10865.142919635226	68
0	34779	10865.511601839034	69
0	34781	10866.319358407356	70
0	34782	10866.721838390094	69
0	34785	10868.173113417079	68
0	34791	10868.423304434725	69
0	34793	10868.751816918006	70
0	34794	10869.480897396256	69
0	34800	10871.105061006054	70
0	34801	10871.282732413907	69
0	34805	10871.960719470785	70
0	34807	10872.373164448461	71
0	34808	10873.152248734434	70
0	34812	10874.36028748152	71
0	34813	10874.477879346919	70
0	34817	10874.680234818762	71
0	34818	10875.88799274863	70
0	34822	10877.10827793823	71
0	34823	10877.719549611036	70
0	34827	10878.037803038164	71
0	34828	10879.150430701312	70
0	34832	10880.575480449245	71
0	34833	10881.058855532494	70
0	34837	10882.320740127153	71
0	34838	10882.612107098673	70
0	34841	10884.527504420292	69
0	34845	10885.913412810122	70
0	34846	10886.017498397839	69
0	34849	10887.462865474459	68
0	34853	10887.723946892664	69
0	34854	10889.331081943039	68
0	34857	10891.035857777495	67
0	34861	10891.705231972363	68
0	34862	10892.253252612997	67
0	34866	10892.634118805195	68
0	34868	10893.426562545434	69
0	34869	10893.536813502956	68
0	34874	10894.794376506295	67
0	34878	10895.928370348985	68
0	34879	10896.073402012523	67
0	34883	10897.3895124064	68
0	34884	10897.814789192948	67
0	34887	10899.660538572829	66
0	34891	10899.924087415399	67
0	34892	10901.589178535353	66
0	34896	10902.661159005702	67
0	34897	10903.409341298241	66
0	34901	10903.532103188336	67
0	34902	10904.9730042467	66
0	34906	10905.12353148078	67
0	34908	10905.729189521287	68
0	34909	10906.395779474276	67
0	34913	10906.496906995967	68
0	34916	10907.723771503019	67
0	34920	10908.869083348174	68
0	34922	10908.945787268489	69
0	34923	10909.572042079466	68
0	34926	10910.874112782451	67
0	34929	10912.290057744468	66
0	34933	10913.773117410955	67
0	34934	10914.020002978305	66
0	34937	10915.355410541045	65
0	34941	10915.45320958351	66
0	34945	10916.594217653779	67
0	34946	10916.657093909951	66
0	34950	10916.970411030311	67
0	34952	10917.220450229945	68
0	34955	10917.879149649488	67
0	34959	10919.071226108916	68
0	34960	10919.824046435589	67
0	34964	10920.411103908222	68
0	34966	10920.610100445074	69
0	34967	10921.064717088649	68
0	34971	10921.269401091646	69
0	34972	10922.574777937317	68
0	34976	10923.452195011965	69
0	34978	10923.700513729512	70
0	34979	10924.222641489105	69
0	34982	10926.029919598633	68
0	34986	10926.382013757065	69
0	34987	10927.518615010762	68
0	34993	10927.851192450592	69
0	34995	10928.527643398128	70
0	34997	10928.834614288557	71
0	34998	10928.997935818144	70
0	35002	10930.473961093483	71
0	35003	10930.901250973166	70
0	35007	10931.088311718594	71
0	35009	10932.665070843356	72
0	35010	10932.733228208133	71
0	35014	10933.041635901123	72
0	35015	10934.138422309429	71
0	35018	10936.080043205068	70
0	35021	10937.818266785712	69
0	35025	10937.889014440231	70
0	35026	10939.30813926571	69
0	35029	10940.6988492556	68
0	35033	10940.999796384478	69
0	35035	10941.214536962132	70
0	35037	10941.892162094129	71
0	35038	10942.118321362519	70
0	35042	10942.869689107186	71
0	35044	10943.748776362149	72
0	35045	10943.899489062847	71
0	35049	10944.012073433928	72
0	35050	10945.285468723447	71
0	35054	10945.67550122489	72
0	35055	10946.578393330061	71
0	35058	10948.019949205601	70
0	35061	10949.982474525282	69
0	35065	10950.675598410516	70
0	35067	10950.994128886606	71
0	35068	10951.293386081243	70
0	35072	10951.803423790878	71
0	35073	10952.871294001127	70
0	35077	10953.816534517961	71
0	35079	10954.0992267595	72
0	35080	10954.127741125236	71
0	35084	10954.181566933292	72
0	35085	10955.781721890728	71
0	35089	10956.933531299898	72
0	35090	10957.455277300636	71
0	35093	10958.69541833588	70
0	35097	10958.706719967659	71
0	35098	10960.123212248656	70
0	35101	10961.817691493976	69
0	35104	10963.487392878915	68
0	35109	10965.367918100404	67
0	35113	10965.73509650764	68
0	35115	10965.974390358469	69
0	35116	10967.310885901945	68
0	35121	10969.200948000709	67
0	35124	10971.012801625776	66
0	35128	10971.261701722143	67
0	35130	10971.544052953516	68
0	35131	10972.631005155492	67
0	35135	10972.704988232883	68
0	35136	10974.354712698992	67
0	35139	10976.286186878394	66
0	35143	10977.673688144819	67
0	35145	10977.771919994426	68
0	35146	10977.826288279529	67
0	35149	10979.751028403464	66
0	35152	10981.029189954709	65
0	35156	10981.81026119421	66
0	35157	10983.010880038526	65
0	35160	10984.487082784262	64
0	35164	10984.732398436145	65
0	35165	10986.107795439113	64
0	35169	10986.79642782848	65
0	35171	10987.877757359933	66
0	35172	10987.986116145004	65
0	35176	10988.352717376861	66
0	35177	10989.475118095253	65
0	35181	10991.263633035208	66
0	35182	10991.366591720481	65
0	35186	10991.523171043892	66
0	35188	10992.597199151527	67
0	35189	10992.851516683039	66
0	35192	10994.404508774181	65
0	35196	10994.465657979289	66
0	35197	10995.82750923672	65
0	35201	10996.233269824566	66
0	35203	10996.612057420315	67
0	35205	10996.918873748583	68
0	35206	10997.636068458867	67
0	35209	10999.336085270543	66
0	35213	11000.029691394535	67
0	35214	11001.070448461932	66
0	35217	11002.324928115693	65
0	35221	11003.27380611993	66
0	35223	11003.393838706638	67
0	35225	11003.878990067665	68
0	35226	11004.215846200486	67
0	35230	11005.209596869142	68
0	35232	11005.732217687535	69
0	35233	11005.807326972683	68
0	35237	11005.834215553545	69
0	35238	11007.680614164111	68
0	35242	11008.63876837159	69
0	35243	11009.05202823208	68
0	35247	11009.162675820954	69
0	35250	11011.03471755666	68
0	35254	11011.057283417653	69
0	35255	11012.370777357568	68
0	35258	11013.70902337787	67
0	35261	11015.302893975948	66
0	35264	11016.997947658797	65
0	35268	11017.774519223185	66
0	35270	11018.312574299974	67
0	35271	11018.340120492143	66
0	35277	11019.451533780172	67
0	35278	11019.959472910514	66
0	35282	11020.663166381098	67
0	35284	11020.839265376335	68
0	35285	11021.363886515623	67
0	35289	11021.662119494182	68
0	35291	11023.207277468765	69
0	35292	11023.239969143471	68
0	35296	11023.825508502039	69
0	35297	11024.554811722612	68
0	35301	11025.245622118877	69
0	35303	11026.436536336025	70
0	35304	11026.510378044298	69
0	35308	11026.638330499732	70
0	35309	11027.971476486897	69
0	35312	11029.314541919542	68
0	35316	11029.34128975544	69
0	35317	11031.249055817736	68
0	35320	11032.910127170955	67
0	35324	11033.2336709329	68
0	35326	11034.299228481123	69
0	35327	11034.676979904075	68
0	35331	11034.732523141894	69
0	35332	11036.322671738838	68
0	35336	11037.243472922417	69
0	35337	11038.057885802922	68
0	35340	11039.556868317177	67
0	35344	11039.848956135821	68
0	35345	11041.131475239446	67
0	35349	11041.733488392794	68
0	35351	11042.013819441134	69
0	35352	11042.773429479276	68
0	35356	11043.818778011224	69
0	35357	11044.495168078889	68
0	35361	11044.711305006994	69
0	35364	11046.221251846303	68
0	35367	11047.729621946265	67
0	35370	11049.648286629853	66
0	35374	11051.028358563228	67
0	35376	11051.130669547901	68
0	35377	11051.431973658142	67
0	35380	11053.025236130518	66
0	35384	11053.480607017284	67
0	35386	11054.343480281655	68
0	35387	11054.394884104853	67
0	35390	11055.700449362782	66
0	35393	11057.004386765708	65
0	35396	11058.695732481231	64
0	35400	11059.286171709271	65
0	35401	11060.348954287929	64
0	35405	11061.283120643141	65
0	35407	11061.492520218821	66
0	35408	11061.757390921575	65
0	35412	11062.072028176325	66
0	35414	11062.860865348674	67
0	35415	11063.166742912878	66
0	35419	11064.31449596973	67
0	35420	11064.785709595878	66
0	35424	11064.842014823698	67
0	35426	11064.927000785816	68
0	35427	11066.3554059215	67
0	35431	11066.665843037336	68
0	35432	11067.926985539134	67
0	35437	11069.369408563908	66
0	35441	11069.835981756931	67
0	35442	11071.343109672714	66
0	35446	11071.480587989433	67
0	35447	11073.083415230002	66
0	35451	11074.093869866879	67
0	35452	11074.519842915993	66
0	35455	11076.204982461233	65
0	35459	11076.813128355723	66
0	35461	11077.37038335664	67
0	35462	11077.743607887823	66
0	35465	11079.69512687904	65
0	35469	11079.789008102058	66
0	35471	11080.583621365619	67
0	35472	11081.019742899027	66
0	35476	11082.826751582342	67
0	35477	11082.868398526695	66
0	35481	11084.244311887182	67
0	35482	11084.348000920948	66
0	35485	11086.045511755545	65
0	35488	11087.711151868861	64
0	35492	11087.743509703001	65
0	35493	11089.028921666007	64
0	35497	11089.987624979849	65
0	35498	11090.721226681966	64
0	35502	11091.203961606667	65
0	35504	11091.234318167795	66
0	35506	11091.459228832914	67
0	35507	11092.709151848789	66
0	35511	11093.460168841246	67
0	35513	11094.127825759716	68
0	35514	11094.348148225072	67
0	35518	11095.547362865444	68
0	35519	11096.142139672312	67
0	35523	11096.343558575246	68
0	35525	11096.456789830536	69
0	35527	11096.643531448239	70
0	35528	11097.873972163918	69
0	35532	11099.045310413731	70
0	35533	11099.725618219572	69
0	35537	11100.018953836173	70
0	35538	11101.270300273421	69
0	35541	11102.778645219291	68
0	35545	11103.282156789042	69
0	35547	11103.619386724512	70
0	35549	11103.822155741392	71
0	35550	11104.208015292148	70
0	35553	11106.199364844347	69
0	35557	11107.08946694182	70
0	35558	11108.011096110391	69
0	35561	11109.460931864577	68
0	35564	11110.81620394812	67
0	35568	11111.926957028087	68
0	35569	11112.424520227509	67
0	35573	11113.407515694155	68
0	35574	11113.876302800337	67
0	35578	11114.28034871198	68
0	35579	11115.418873482952	67
0	35583	11117.032443274051	68
0	35584	11117.310706896717	67
0	35588	11118.091568487344	68
0	35589	11119.279906324307	67
0	35593	11119.704591508386	68
0	35594	11120.819095776054	67
0	35598	11120.893552824464	68
0	35600	11120.928431854318	69
0	35601	11122.361500660713	68
0	35605	11122.37459447137	69
0	35607	11123.70898072595	70
0	35608	11124.044847485434	69
0	35612	11125.622570822272	70
0	35613	11125.970274126168	69
0	35617	11126.326502651333	70
0	35618	11127.288843533408	69
0	35622	11128.252338049079	70
0	35625	11129.212231367093	69
0	35629	11129.364560657122	70
0	35630	11130.874276691501	69
0	35634	11130.975031202721	70
0	35635	11132.56020326746	69
0	35638	11134.526583761362	68
0	35642	11135.476167737215	69
0	35643	11135.832128688519	68
0	35647	11135.955129085133	69
0	35649	11136.591696158693	70
0	35650	11137.747525648785	69
0	35654	11138.726056565552	70
0	35655	11139.738727228728	69
0	35659	11140.230164475847	70
0	35660	11141.403924434644	69
0	35663	11142.718483422336	68
0	35667	11142.951891138141	69
0	35669	11143.015176616316	70
0	35671	11143.064384912768	71
0	35672	11144.620458307502	70
0	35676	11145.31360456826	71
0	35677	11145.902754437004	70
0	35681	11147.022937196946	71
0	35682	11147.466535217141	70
0	35685	11149.152051610884	69
0	35689	11149.499941732508	70
0	35691	11149.624058447134	71
0	35692	11150.703172996652	70
0	35695	11151.982626812358	69
0	35699	11152.327223971315	70
0	35701	11152.869190658759	71
0	35703	11153.266395919775	72
0	35704	11153.346322235849	71
0	35710	11154.322759048836	72
0	35711	11154.64797231016	71
0	35714	11156.288526999776	70
0	35718	11156.806382204635	71
0	35720	11157.114544442259	72
0	35721	11157.511893699703	71
0	35725	11157.516290779704	72
0	35726	11159.185216225882	71
0	35729	11160.709293542069	70
0	35733	11161.244486176474	71
0	35734	11162.356705500197	70
0	35738	11162.51394837696	71
0	35740	11162.794389490969	72
0	35742	11164.157987064151	73
0	35743	11164.242484545905	72
0	35746	11165.775526968773	71
0	35751	11167.246031979482	70
0	35757	11169.065935063186	71
0	35758	11169.10424940494	70
0	35761	11170.720817288767	69
0	35765	11171.370368234388	70
0	35767	11171.566482218275	71
0	35768	11172.096224355149	70
0	35772	11173.080076117458	71
0	35773	11174.074522382962	70
0	35776	11175.461585270437	69
0	35781	11176.68132511695	68
0	35785	11176.801678421862	69
0	35786	11178.033117402541	68
0	35789	11179.484019102352	67
0	35793	11179.816306419646	68
0	35794	11180.816212301338	67
0	35798	11181.103946077032	68
0	35799	11182.570084342742	67
0	35803	11183.250383414179	68
0	35804	11183.943357343049	67
0	35808	11184.127799425666	68
0	35810	11185.048955820395	69
0	35811	11185.796326435925	68
0	35815	11186.629972140823	69
0	35816	11187.685242176437	68
0	35819	11189.018567955502	67
0	35823	11190.206670884941	68
0	35824	11190.832453146771	67
0	35828	11192.01909499634	68
0	35829	11192.526798965976	67
0	35833	11193.280027121045	68
0	35835	11193.777875613127	69
0	35836	11194.230796978258	68
0	35840	11195.088081228047	69
0	35841	11195.838016925387	68
0	35845	11196.114650473582	69
0	35847	11196.29255650838	70
0	35849	11197.213247632762	71
0	35850	11197.808502171568	70
0	35854	11198.251584012601	71
0	35856	11198.764054697071	72
0	35857	11199.659034840024	71
0	35860	11201.02350430452	70
0	35864	11201.156277575205	71
0	35866	11201.324637495789	72
0	35868	11202.19400355658	73
0	35869	11202.950504753745	72
0	35873	11203.053019659692	73
0	35875	11203.968746056472	74
0	35876	11204.265918072319	73
0	35880	11206.09842028074	74
0	35881	11206.10946696364	73
0	35885	11207.742656804238	74
0	35886	11207.879551485373	73
0	35890	11208.256255404751	74
0	35891	11209.475746239914	73
0	35894	11211.17316089478	72
0	35898	11211.735651236549	73
0	35899	11212.577573855227	72
0	35902	11214.057090436114	71
0	35906	11215.682741543301	72
0	35907	11215.96097705253	71
0	35911	11216.273108610131	72
0	35913	11216.999597620074	73
0	35915	11217.355251345908	74
0	35916	11217.794849880231	73
0	35919	11219.522155558323	72
0	35923	11219.973595119495	73
0	35924	11221.107212517416	72
0	35928	11221.447993451033	73
0	35929	11222.854470481729	72
0	35933	11223.577350223823	73
0	35934	11224.123640070489	72
0	35938	11224.339181582035	73
0	35939	11225.991668404458	72
0	35943	11226.319284223204	73
0	35945	11226.52427465956	74
0	35947	11227.030683341108	75
0	35948	11227.267158355569	74
0	35951	11228.995064996747	73
0	35955	11229.739915108625	74
0	35957	11229.898341196956	75
0	35958	11230.398275272181	74
0	35962	11231.024580858423	75
0	35964	11231.632106379514	76
0	35965	11231.695998393936	75
0	35968	11233.363442408858	74
0	35972	11234.47168194293	75
0	35973	11234.779904778494	74
0	35977	11234.87810760903	75
0	35979	11235.176405866226	76
0	35980	11236.027293802618	75
0	35983	11237.589432196884	74
0	35987	11239.099445373798	75
0	35988	11239.246681805334	74
0	35991	11241.004524814344	73
0	35994	11242.668313398964	72
0	35998	11243.794753083246	73
0	35999	11244.079546808458	72
0	36003	11245.423431727276	73
0	36004	11245.977462247021	72
0	36008	11246.696044984752	73
0	36009	11247.449220269739	72
0	36012	11249.338264035999	71
0	36015	11251.063382452361	70
0	36019	11252.496801124829	71
0	36020	11252.670113303892	70
0	36023	11254.049970793731	69
0	36027	11254.263852724846	70
0	36028	11255.503798031069	69
0	36032	11256.431296043107	70
0	36033	11257.187748950168	69
0	36037	11257.393434216133	70
0	36039	11257.535911139	71
0	36040	11259.181323540776	70
0	36043	11260.62337400858	69
0	36047	11260.867832789543	70
0	36049	11261.748256388305	71
0	36050	11262.42878564038	70
0	36054	11263.031512679324	71
0	36056	11263.158753637964	72
0	36058	11263.84355695403	73
0	36059	11264.13824933414	72
0	36063	11264.296516451466	73
0	36067	11265.53873619215	74
0	36068	11265.971645500331	73
0	36071	11267.752256332717	72
0	36075	11268.38781014647	73
0	36076	11269.30261497461	72
0	36080	11269.487495150998	73
0	36082	11270.685035422589	74
0	36083	11270.923335151568	73
0	36087	11271.855451933801	74
0	36088	11272.144036312967	73
0	36092	11272.763764689858	74
0	36094	11273.289033995283	75
0	36095	11273.3519754069	74
0	36099	11273.392552988013	75
0	36101	11273.945371771454	76
0	36102	11275.011358610362	75
0	36106	11275.088097158012	76
0	36107	11276.902472804494	75
0	36110	11278.878020903662	74
0	36113	11280.444311713621	73
0	36117	11281.056298422976	74
0	36119	11281.408385065882	75
0	36120	11281.943046401076	74
0	36124	11281.979948789624	75
0	36126	11282.167309325663	76
0	36128	11283.445086486444	77
0	36129	11283.623545793451	76
0	36132	11284.930871987909	75
0	36136	11285.191570710057	76
0	36138	11285.490730752513	77
0	36139	11286.619347034775	76
0	36142	11288.094440048382	75
0	36145	11289.752728081502	74
0	36149	11290.177368612017	75
0	36151	11290.657619354746	76
0	36152	11291.176733407386	75
0	36156	11291.387149205218	76
0	36158	11291.612634190885	77
0	36159	11292.410302993663	76
0	36162	11293.93841466327	75
0	36166	11295.170721811876	76
0	36167	11295.603840446852	75
0	36171	11295.818867663188	76
0	36172	11297.161991428032	75
0	36176	11297.173497552091	76
0	36177	11298.592096524879	75
0	36181	11299.52368878129	76
0	36182	11299.999003057561	75
0	36186	11300.227411713863	76
0	36187	11301.76213258282	75
0	36191	11301.992237556742	76
0	36192	11303.331251602068	75
0	36196	11303.405453803085	76
0	36197	11304.571305709898	75
0	36201	11304.834504497708	76
0	36202	11306.049834584452	75
0	36206	11306.850318485208	76
0	36207	11307.916383259006	75
0	36210	11309.61239379552	74
0	36214	11310.531246918475	75
0	36215	11310.872803846568	74
0	36219	11311.870963082815	75
0	36221	11311.939212342107	76
0	36222	11312.308229247488	75
0	36226	11313.279603202942	76
0	36228	11313.394569081852	77
0	36229	11314.25864923355	76
0	36233	11315.069386075533	77
0	36235	11315.551708224731	78
0	36236	11316.22206688226	77
0	36239	11317.709994355596	76
0	36243	11318.927117217036	77
0	36244	11319.234496696673	76
0	36248	11319.893917421916	77
0	36249	11321.20728938096	76
0	36253	11321.526474420018	77
0	36254	11322.494686632797	76
0	36258	11323.786099143387	77
0	36259	11323.807373668261	76
0	36263	11324.119839577002	77
0	36265	11324.63555369373	78
0	36266	11325.154204455584	77
0	36270	11326.242278162245	78
0	36272	11326.433545576465	79
0	36273	11327.088251428872	78
0	36277	11327.82444196327	79
0	36281	11328.27275526247	80
0	36282	11328.445909994289	79
0	36285	11330.163881730295	78
0	36289	11330.519506285425	79
0	36290	11331.595116621821	78
0	36294	11331.973012310769	79
0	36295	11333.092807901098	78
0	36299	11334.335314612938	79
0	36300	11334.758534761524	78
0	36304	11334.782331453894	79
0	36305	11335.990310729487	78
0	36309	11336.293666458589	79
0	36311	11336.690277073565	80
0	36313	11337.136622597973	81
0	36314	11337.196292973874	80
0	36319	11339.170215979224	79
0	36323	11339.62828819058	80
0	36325	11339.7112249349	81
0	36326	11341.085822070396	80
0	36330	11341.536128185953	81
0	36331	11342.989133348136	80
0	36335	11344.11339742417	81
0	36336	11344.520149181417	80
0	36339	11346.336205330684	79
0	36343	11347.71349374947	80
0	36344	11348.199927944324	79
0	36350	11349.267045709709	80
0	36352	11349.372428502917	81
0	36355	11350.196852619021	80
0	36358	11351.419634164131	79
0	36362	11351.950082258079	80
0	36363	11353.286411812163	79
0	36366	11354.693126198842	78
0	36370	11354.952063545442	79
0	36372	11355.898860509206	80
0	36373	11356.039909512742	79
0	36377	11356.593166235214	80
0	36378	11357.891376318044	79
0	36381	11359.758036937012	78
0	36385	11360.924866714136	79
0	36386	11361.430060812837	78
0	36390	11362.375745894694	79
0	36391	11363.391802303685	78
0	36395	11363.763850301734	79
0	36396	11365.146925440623	78
0	36399	11366.605968422263	77
0	36402	11368.136739742576	76
0	36405	11369.567908483936	75
0	36409	11369.863178556222	76
0	36410	11371.539338524273	75
0	36414	11372.410732341124	76
0	36418	11373.403663752719	77
0	36419	11373.506117332733	76
0	36423	11373.753932376333	77
0	36425	11373.854620937885	78
0	36428	11375.220738476149	77
0	36431	11376.499717709056	76
0	36435	11377.263917434172	77
0	36437	11377.471910392804	78
0	36438	11378.106684555306	77
0	36442	11378.650356610581	78
0	36444	11378.932378747621	79
0	36445	11379.738095216087	78
0	36448	11381.558965194791	77
0	36452	11382.784448822118	78
0	36453	11382.960436585739	77
0	36457	11383.110147744447	78
0	36459	11383.423995666421	79
0	36460	11384.61171313525	78
0	36463	11386.447163290165	77
0	36467	11387.529479030608	78
0	36468	11388.442889055058	77
0	36471	11390.149882397249	76
0	36475	11390.15195087487	77
0	36477	11390.697764542014	78
0	36479	11391.640357022951	79
0	36480	11391.956998197369	78
0	36483	11393.916334324524	77
0	36487	11394.03310175419	78
0	36489	11394.155112661905	79
0	36491	11395.682335211111	80
0	36492	11395.797357917026	79
0	36495	11397.653361987517	78
0	36499	11398.654894256879	79
0	36500	11399.291914680608	78
0	36505	11401.048292462536	77
0	36511	11402.288693522585	78
0	36512	11402.831187025093	77
0	36516	11402.870800135225	78
0	36517	11404.432720464848	77
0	36520	11406.294759372629	76
0	36523	11407.687785084925	75
0	36527	11408.051743575381	76
0	36529	11408.307935008393	77
0	36531	11408.932083077773	78
0	36533	11409.047193660802	79
0	36534	11409.507865471959	78
0	36538	11409.521579984242	79
0	36539	11411.120378305212	78
0	36543	11412.034826063924	79
0	36544	11412.993242226176	78
0	36547	11414.984824516073	77
0	36551	11415.021299454468	78
0	36553	11415.057338599546	79
0	36554	11416.917988574885	78
0	36558	11417.185468871529	79
0	36559	11418.546148587212	78
0	36563	11418.613990805365	79
0	36564	11420.155642963395	78
0	36567	11421.776583267943	77
0	36570	11423.136981380553	76
0	36574	11423.679042268387	77
0	36575	11424.44329661616	76
0	36579	11425.233934333617	77
0	36581	11425.839034768961	78
0	36582	11426.09112372809	77
0	36585	11427.993126948186	76
0	36588	11429.413523844451	75
0	36592	11430.666860134362	76
0	36593	11431.297483426713	75
0	36597	11432.937609961592	76
0	36598	11433.228318454519	75
0	36601	11434.957023431182	74
0	36605	11436.092060788156	75
0	36606	11436.502898511671	74
0	36610	11436.924556023213	75
0	36612	11437.576497735292	76
0	36614	11438.244682521887	77
0	36615	11438.244978570201	76
0	36619	11438.441271014942	77
0	36621	11438.765258799758	78
0	36622	11439.684452571914	77
0	36626	11440.057485619194	78
0	36627	11441.069764954232	77
0	36631	11441.980702587681	78
0	36632	11442.400234170266	77
0	36636	11442.912469838084	78
0	36637	11443.919722324059	77
0	36642	11445.762608852804	76
0	36646	11446.363981509179	77
0	36647	11447.161831825793	76
0	36651	11447.309560350882	77
0	36653	11447.483733557524	78
0	36654	11448.683721044295	77
0	36657	11450.381593043179	76
0	36661	11451.302875533595	77
0	36662	11451.641532171339	76
0	36665	11452.881624587633	75
0	36669	11453.114412789039	76
0	36671	11453.266844788513	77
0	36672	11454.298781950221	76
0	36675	11455.74141678308	75
0	36679	11457.073003064378	76
0	36680	11457.626013473057	75
0	36684	11458.533689553581	76
0	36685	11459.321375519604	75
0	36689	11459.498180235294	76
0	36691	11460.167603580083	77
0	36692	11460.737782791637	76
0	36696	11461.297303693929	77
0	36697	11462.133267667152	76
0	36700	11464.13105591052	75
0	36704	11464.413316070519	76
0	36706	11465.191492225021	77
0	36707	11465.954918627821	76
0	36710	11467.265444380611	75
0	36714	11468.571865609346	76
0	36715	11468.793640490815	75
0	36719	11469.600640855635	76
0	36720	11470.12330669184	75
0	36724	11470.409202679528	76
0	36726	11471.107374521094	77
0	36727	11471.593841186918	76
0	36731	11471.698908182226	77
0	36733	11472.531502699901	78
0	36734	11473.042304040126	77
0	36738	11473.146748421666	78
0	36740	11473.44209504328	79
0	36741	11474.272338465608	78
0	36745	11475.188482620809	79
0	36746	11475.6917927621	78
0	36749	11476.967964124873	77
0	36753	11477.072631222745	78
0	36755	11477.108831917685	79
0	36757	11477.799765840866	80
0	36758	11478.453053736321	79
0	36762	11479.421732973408	80
0	36763	11479.825881207369	79
0	36767	11481.044512843825	80
0	36768	11481.323340531632	79
0	36772	11481.544527076874	80
0	36774	11482.53001510734	81
0	36775	11483.211002003781	80
0	36779	11483.575829143108	81
0	36781	11483.619648815413	82
0	36783	11484.72560589208	83
0	36784	11485.201965611994	82
0	36787	11486.468083931327	81
0	36791	11487.714500247287	82
0	36793	11487.831895079958	83
0	36794	11488.39041772262	82
0	36798	11489.926494048004	83
0	36799	11490.166743049405	82
0	36803	11490.460485945012	83
0	36804	11491.871742493666	82
0	36808	11492.793182233753	83
0	36809	11493.729228680401	82
0	36813	11494.907236945924	83
0	36814	11495.682055193192	82
0	36817	11497.071956529288	81
0	36821	11497.694338602598	82
0	36823	11498.005245189624	83
0	36825	11498.457710747595	84
0	36827	11498.953084222829	85
0	36828	11499.070331620803	84
0	36832	11499.61949331734	85
0	36833	11500.436549776053	84
0	36837	11501.523238142372	85
0	36838	11501.901439709781	84
0	36842	11502.53694705523	85
0	36843	11503.724759651726	84
0	36846	11505.5931654146	83
0	36850	11506.69072991869	84
0	36851	11507.316262278339	83
0	36855	11508.232231698105	84
0	36856	11508.91392705497	83
0	36860	11509.004916462623	84
0	36862	11510.676568157006	85
0	36863	11510.854950828856	84
0	36866	11512.414773416525	83
0	36869	11513.888069706789	82
0	36873	11514.105043817754	83
0	36874	11515.407620292536	82
0	36878	11515.491283625471	83
0	36879	11516.66056270451	82
0	36882	11518.124015125639	81
0	36886	11518.397742753913	82
0	36888	11518.658331220283	83
0	36889	11519.377118175484	82
0	36892	11521.329120097875	81
0	36895	11523.122405617318	80
0	36899	11524.182676932208	81
0	36900	11524.689090578823	80
0	36904	11526.070494250922	81
0	36906	11526.341659353991	82
0	36908	11526.61606815007	83
0	36909	11526.619096577732	82
0	36913	11527.684044716224	83
0	36914	11528.491130915662	82
0	36918	11528.683826589347	83
0	36919	11529.738117089873	82
0	36923	11530.975522830288	83
0	36924	11531.256491816608	82
0	36927	11533.024560409976	81
0	36931	11533.768481484157	82
0	36932	11534.936119995272	81
0	36935	11536.235143845534	80
0	36939	11537.43884256978	81
0	36940	11538.161134235753	80
0	36943	11539.763157422846	79
0	36946	11541.682176377816	78
0	36949	11543.631637006258	77
0	36953	11544.559136718724	78
0	36954	11545.138281467376	77
0	36958	11545.66646024198	78
0	36959	11546.653447349189	77
0	36962	11547.895581833838	76
0	36966	11548.464348026496	77
0	36967	11549.666214133805	76
0	36971	11549.94340956439	77
0	36972	11551.071947779326	76
0	36976	11551.595624505389	77
0	36978	11552.291741023895	78
0	36979	11552.806056988431	77
0	36983	11553.912999338933	78
0	36984	11554.522363797022	77
0	36987	11555.824044158315	76
0	36990	11557.483275148278	75
0	36994	11557.738460300764	76
0	36995	11559.429471062316	75
0	36999	11560.333456923945	76
0	37000	11560.950410381711	75
0	37003	11562.346104583523	74
0	37006	11563.58106625565	73
0	37010	11564.450246704137	74
0	37011	11565.443385141721	73
0	37015	11565.869713168857	74
0	37016	11566.677199050231	73
0	37020	11567.158954653584	74
0	37022	11567.167433649107	75
0	37024	11567.969427332074	76
0	37026	11568.203217218697	77
0	37027	11568.5531008808	76
0	37031	11568.754603039313	77
0	37033	11569.590186476512	78
0	37035	11569.815358436385	79
0	37038	11569.916302139318	78
0	37042	11570.988992253507	79
0	37044	11571.069796210649	80
0	37045	11571.446660524613	79
0	37048	11573.407989179908	78
0	37051	11575.398292185	77
0	37055	11575.431738589046	78
0	37056	11576.78821948637	77
0	37060	11577.287791911474	78
0	37061	11578.4667229252	77
0	37064	11580.345861576318	76
0	37068	11581.011253870832	77
0	37070	11581.892013493385	78
0	37071	11581.98730573897	77
0	37075	11582.793490062727	78
0	37077	11583.24658734143	79
0	37078	11583.316368186108	78
0	37082	11584.229413838684	79
0	37083	11585.308451222263	78
0	37086	11587.224867607102	77
0	37090	11588.64921907637	78
0	37091	11589.218057585702	77
0	37095	11589.396949847147	78
0	37097	11589.69234038883	79
0	37099	11590.319949351288	80
0	37101	11590.467157019747	81
0	37102	11590.472787905306	80
0	37106	11591.310828096305	81
0	37108	11591.965669264034	82
0	37109	11592.264573514283	81
0	37113	11592.57608251242	82
0	37115	11593.770500236811	83
0	37116	11593.823526556798	82
0	37120	11594.867738618759	83
0	37121	11595.418921267436	82
0	37125	11596.518758381258	83
0	37126	11596.698418055856	82
0	37130	11597.720347243186	83
0	37131	11598.304222019212	82
0	37135	11599.711109064053	83
0	37136	11599.976083921091	82
0	37140	11600.886687829791	83
0	37141	11601.876891562538	82
0	37144	11603.369738739179	81
0	37148	11603.408434820368	82
0	37150	11604.233949880516	83
0	37151	11604.920578058632	82
0	37155	11605.784071397926	83
0	37156	11606.528159916224	82
0	37160	11607.04702366808	83
0	37162	11607.416552531559	84
0	37165	11608.508002511049	83
0	37168	11609.929317990514	82
0	37172	11610.053964492495	83
0	37173	11611.517444316308	82
0	37177	11612.152795123063	83
0	37180	11613.33854420987	82
0	37184	11613.924380037739	83
0	37185	11614.623977109427	82
0	37189	11614.782078786352	83
0	37190	11615.957216623994	82
0	37193	11617.271751064817	81
0	37196	11618.532684829841	80
0	37200	11619.190171112655	81
0	37202	11619.65767495219	82
0	37203	11620.481514679837	81
0	37207	11620.550040460135	82
0	37208	11622.173546681377	81
0	37212	11622.450643834578	82
0	37213	11623.700287043127	81
0	37216	11625.418909553821	80
0	37219	11627.281378618265	79
0	37223	11628.31589588304	80
0	37224	11628.745835455889	79
0	37227	11630.71009726488	78
0	37230	11632.065341861369	77
0	37234	11632.113755016428	78
0	37236	11633.411130970533	79
0	37237	11633.717678948874	78
0	37240	11635.196948648999	77
0	37244	11636.658702806081	78
0	37245	11636.701028704839	77
0	37249	11637.268995498398	78
0	37250	11638.548548073145	77
0	37255	11639.867443304332	76
0	37261	11640.222490625791	77
0	37263	11640.466019672702	78
0	37265	11640.904904315827	79
0	37266	11641.201921108933	78
0	37270	11641.686612990517	79
0	37272	11641.737688262285	80
0	37273	11642.708135257298	79
0	37277	11643.517217414091	80
0	37278	11643.95804702715	79
0	37282	11644.121385609406	80
0	37283	11645.294540830152	79
0	37287	11645.495337194711	80
0	37288	11647.017369157271	79
0	37292	11647.076018112258	80
0	37293	11648.39315326848	79
0	37297	11649.661120789713	80
0	37298	11649.926243014456	79
0	37302	11650.153579609823	80
0	37305	11651.774639928722	79
0	37309	11652.733474693725	80
0	37310	11653.394351269872	79
0	37314	11654.540582167752	80
0	37315	11654.689858168558	79
0	37318	11656.022279547722	78
0	37322	11657.102962794564	79
0	37323	11657.350402596787	78
0	37327	11657.710826820259	79
0	37328	11659.202085385479	78
0	37332	11660.18259525751	79
0	37333	11660.974587611861	78
0	37337	11661.535650224317	79
0	37338	11662.730031183183	78
0	37342	11664.587974929167	79
0	37343	11664.703979033984	78
0	37347	11665.046040780853	79
0	37349	11665.418785362538	80
0	37350	11666.139210834361	79
0	37354	11667.139671594939	80
0	37356	11667.222213422629	81
0	37357	11667.579714615277	80
0	37360	11669.224869727909	79
0	37364	11669.432562227454	80
0	37367	11671.06797716879	79
0	37371	11672.131019944184	80
0	37373	11672.16664699469	81
0	37374	11672.640144767991	80
0	37378	11672.877211964756	81
0	37380	11673.295544369445	82
0	37382	11673.598751625667	83
0	37383	11673.862237884856	82
0	37386	11675.192549927912	81
0	37390	11676.547190138299	82
0	37391	11677.113244820579	81
0	37395	11677.740217721806	82
0	37396	11679.093952524296	81
0	37400	11679.164990828815	82
0	37401	11680.892845847278	81
0	37405	11682.269061445898	82
0	37406	11682.711755259155	81
0	37410	11684.18970025823	82
0	37411	11684.473095962598	81
0	37415	11685.423976816665	82
0	37417	11685.85696536963	83
0	37418	11685.859468460648	82
0	37422	11687.216528259683	83
0	37423	11687.444092423661	82
0	37427	11687.921331179154	83
0	37428	11688.705019629566	82
0	37431	11690.079064932844	81
0	37434	11691.349807913607	80
0	37438	11692.541842726238	81
0	37439	11692.560353625758	80
0	37443	11692.667464300092	81
0	37444	11694.067820462032	80
0	37450	11695.323129954494	81
0	37451	11695.851553843177	80
0	37455	11696.936747381644	81
0	37456	11697.052237674973	80
0	37460	11697.212118443531	81
0	37461	11698.66970393528	80
0	37465	11699.231724005751	81
0	37467	11699.427997181568	82
0	37468	11700.13735666015	81
0	37472	11701.167601064844	82
0	37473	11702.001194877557	81
0	37476	11703.745778178989	80
0	37479	11705.288754305623	79
0	37482	11706.864604081593	78
0	37486	11708.22572146301	79
0	37487	11708.2479002975	78
0	37491	11709.267844215753	79
0	37493	11709.323767855064	80
0	37495	11709.356234559046	81
0	37496	11709.734093650624	80
0	37499	11710.985636976741	79
0	37503	11711.073182903037	80
0	37505	11711.910588843039	81
0	37506	11712.51387559735	80
0	37509	11714.091496116489	79
0	37513	11714.282480496792	80
0	37515	11714.989332108499	81
0	37516	11715.423229613162	80
0	37520	11716.466496478353	81
0	37522	11716.631697123923	82
0	37523	11717.018967602036	81
0	37527	11718.536627244265	82
0	37528	11718.829951851263	81
0	37532	11719.793887424629	82
0	37533	11720.745459125198	81
0	37537	11721.802376058268	82
0	37538	11722.178310243047	81
0	37541	11723.584630063928	80
0	37545	11724.114376826476	81
0	37547	11724.565826750485	82
0	37548	11724.913570793539	81
0	37553	11726.642180786103	80
0	37556	11728.075550978452	79
0	37559	11729.817491557457	78
0	37563	11730.145433857388	79
0	37565	11731.349314841019	80
0	37567	11731.576184378897	81
0	37568	11731.71159824171	80
0	37571	11733.711541880675	79
0	37575	11733.7679131227	80
0	37576	11735.272736715533	79
0	37579	11736.796967856966	78
0	37583	11736.802525430413	79
0	37585	11736.962390202955	80
0	37586	11738.094211621404	79
0	37589	11739.523082759612	78
0	37593	11740.142957494617	79
0	37594	11741.118984580607	78
0	37597	11742.514030605377	77
0	37601	11743.022548186999	78
0	37603	11743.288519297071	79
0	37604	11743.904676421182	78
0	37607	11745.178489721389	77
0	37610	11747.172523689838	76
0	37614	11747.214801270696	77
0	37615	11749.08585717232	76
0	37618	11751.048106718259	75
0	37622	11751.302327604384	76
0	37624	11751.356589984618	77
0	37626	11751.906016025479	78
0	37627	11752.668443655977	77
0	37630	11753.907559900926	76
0	37634	11755.255787114918	77
0	37636	11755.30428460901	78
0	37637	11755.320267973104	77
0	37641	11756.151191221917	78
0	37643	11756.642267733983	79
0	37644	11757.295416049109	78
0	37647	11758.588612576396	77
0	37650	11760.249374172845	76
0	37654	11761.356149878234	77
0	37655	11762.226869919532	76
0	37659	11763.306149208041	77
0	37660	11763.772462355726	76
0	37663	11765.134184743658	75
0	37667	11765.182239259789	76
0	37668	11766.89199231305	75
0	37672	11767.897554630656	76
0	37674	11767.914850858984	77
0	37675	11768.382732885897	76
0	37678	11770.215461402394	75
0	37682	11770.373067932408	76
0	37684	11770.509634518905	77
0	37686	11770.59332739661	78
0	37687	11771.488787179448	77
0	37691	11771.800845674482	78
0	37692	11773.120234277666	77
0	37696	11773.889082165777	78
0	37698	11774.351811755276	79
0	37699	11774.948713486091	78
0	37702	11776.408876628437	77
0	37706	11776.896761148869	78
0	37708	11777.005824699596	79
0	37709	11777.719674072423	78
0	37713	11778.620669191274	79
0	37714	11778.926379439243	78
0	37717	11780.467291524828	77
0	37721	11780.695246936506	78
0	37723	11780.996141286827	79
0	37725	11781.343749384535	80
0	37727	11781.977433392788	81
0	37728	11782.138919448115	80
0	37732	11782.428476306952	81
0	37734	11783.447022129264	82
0	37735	11783.925651836962	81
0	37739	11783.964499554025	82
0	37743	11784.905337728332	83
0	37744	11785.762177591593	82
0	37748	11786.394914878162	83
0	37750	11786.833533630801	84
0	37751	11787.179517017872	83
0	37755	11788.07147874264	84
0	37756	11788.417916774944	83
0	37760	11788.642251450862	84
0	37761	11790.003268980802	83
0	37765	11790.412683576704	84
0	37766	11791.554319367752	83
0	37769	11792.804477225811	82
0	37773	11792.928749105375	83
0	37775	11793.660760224428	84
0	37776	11794.356800406434	83
0	37779	11795.999757844217	82
0	37783	11796.053485963839	83
0	37785	11796.563218338183	84
0	37786	11797.936437449239	83
0	37789	11799.700815686591	82
0	37793	11799.946538043165	83
0	37796	11801.284751750909	82
0	37800	11802.858033013107	83
0	37802	11803.106183701568	84
0	37803	11803.268465619914	83
0	37807	11804.124898410486	84
0	37809	11804.791575774472	85
0	37810	11804.860061425537	84
0	37813	11806.446162879288	83
0	37817	11806.908301888708	84
0	37819	11807.491811729313	85
0	37820	11808.355317181542	84
0	37823	11809.919793947607	83
0	37827	11810.607604176561	84
0	37829	11811.175981203391	85
0	37830	11811.669950668521	84
0	37833	11813.348207213923	83
0	37836	11814.591325019307	82
0	37840	11815.213238948294	83
0	37841	11816.281400672912	82
0	37847	11817.684451882028	83
0	37848	11817.826178846888	82
0	37852	11819.00628935298	83
0	37853	11819.727017994605	82
0	37857	11820.906669622402	83
0	37858	11821.493042788848	82
0	37861	11822.898097632274	81
0	37865	11823.935799430147	82
0	37866	11824.400205503598	81
0	37869	11826.068586864889	80
0	37873	11826.178723293137	81
0	37875	11826.369570401515	82
0	37877	11826.99202476248	83
0	37878	11827.825044244908	82
0	37882	11828.167098895645	83
0	37883	11829.113990832314	82
0	37887	11829.238989387178	83
0	37889	11829.847869862143	84
0	37891	11830.505993893307	85
0	37892	11830.761474081881	84
0	37895	11832.104804064154	83
0	37899	11832.134726832217	84
0	37900	11833.440157730139	83
0	37904	11834.545678712743	84
0	37905	11834.817045225582	83
0	37909	11836.155591499437	84
0	37910	11836.583606162115	83
0	37914	11836.823662339412	84
0	37916	11836.955457969585	85
0	37918	11836.995940328139	86
0	37919	11838.188863597631	85
0	37923	11838.713715429024	86
0	37925	11839.059359322852	87
0	37926	11839.516434651061	86
0	37929	11840.958593778132	85
0	37933	11841.262590259255	86
0	37935	11841.368262582092	87
0	37936	11842.183251331753	86
0	37940	11842.354789657739	87
0	37941	11844.152916671715	86
0	37944	11845.942798403844	85
0	37948	11846.001142487999	86
0	37950	11847.431596625603	87
0	37951	11847.733059322282	86
0	37954	11849.226548627026	85
0	37957	11850.631654936827	84
0	37961	11851.204877521737	85
0	37963	11851.88479478777	86
0	37964	11852.102512829944	85
0	37968	11852.526909196702	86
0	37969	11853.666772175587	85
0	37973	11853.820908196845	86
0	37975	11854.225732909547	87
0	37976	11855.035455594777	86
0	37980	11855.094661253944	87
0	37981	11856.577415963641	86
0	37984	11857.865546670748	85
0	37988	11858.721760943825	86
0	37989	11859.538484372391	85
0	37993	11861.248618123374	86
0	37994	11861.288096833794	85
0	37998	11862.688387932411	86
0	37999	11863.050654863572	85
0	38002	11864.395674403576	84
0	38006	11865.515086478767	85
0	38007	11865.700346212281	84
0	38011	11865.785361022158	85
0	38013	11866.755597469768	86
0	38014	11867.227561098529	85
0	38017	11868.463039368583	84
0	38021	11869.770466257151	85
0	38022	11869.775055864086	84
0	38025	11871.01807853282	83
0	38029	11871.59138312677	84
0	38031	11871.612420862377	85
0	38032	11872.845114575331	84
0	38035	11874.445220609945	83
0	38039	11874.468315052593	84
0	38040	11875.980473540728	83
0	38044	11877.199252313826	84
0	38045	11877.511176157934	83
0	38049	11878.786911295824	84
0	38050	11879.009332972025	83
0	38054	11879.433787819287	84
0	38055	11880.931075798539	83
0	38059	11882.50458071461	84
0	38060	11882.547958591213	83
0	38064	11882.633769578888	84
0	38065	11884.13310353179	83
0	38069	11884.588649584827	84
0	38070	11886.100858705496	83
0	38074	11886.724746883346	84
0	38075	11887.950217989651	83
0	38079	11887.966108203059	84
0	38081	11888.637155904955	85
0	38082	11889.910242062253	84
0	38086	11890.379344656815	85
0	38088	11891.304178999359	86
0	38089	11891.502346638967	85
0	38093	11892.000731236515	86
0	38095	11892.398123900633	87
0	38096	11893.061932353493	86
0	38100	11893.604552036088	87
0	38101	11894.822096335333	86
0	38105	11895.427083670289	87
0	38107	11895.71375174662	88
0	38109	11895.94738415618	89
0	38111	11896.296621926067	90
0	38112	11896.516187305566	89
0	38116	11896.52832699431	90
0	38118	11896.944958695362	91
0	38119	11897.774078291845	90
0	38123	11898.173336180491	91
0	38126	11899.381266948026	90
0	38129	11900.650727819469	89
0	38133	11900.711437370754	90
0	38135	11901.063713039578	91
0	38136	11902.410901285712	90
0	38140	11902.698370729316	91
0	38142	11904.130913598642	92
0	38144	11904.188945873927	93
0	38145	11904.319229619768	92
0	38148	11905.657397124548	91
0	38152	11905.920596404203	92
0	38153	11907.411327414591	91
0	38159	11908.444897736161	92
0	38160	11908.720577187468	91
0	38164	11908.788158565989	92
0	38165	11910.091384682622	91
0	38169	11911.586619275648	92
0	38170	11911.736934044216	91
0	38174	11912.33672917395	92
0	38175	11913.46083027665	91
0	38178	11914.809964552899	90
0	38181	11916.058600506005	89
0	38185	11916.063742594394	90
0	38187	11916.391907479528	91
0	38188	11918.034637399954	90
0	38192	11918.648314740354	91
0	38194	11918.726554328447	92
0	38195	11919.276746258331	91
0	38199	11920.07572484772	92
0	38200	11920.73828404211	91
0	38203	11922.38565531448	90
0	38206	11924.306680761841	89
0	38210	11925.12719320511	90
0	38212	11925.849103165065	91
0	38213	11926.162852231604	90
0	38217	11926.3137358965	91
0	38219	11926.923660943971	92
0	38220	11928.008127868553	91
0	38223	11929.550995217082	90
0	38226	11931.384769547735	89
0	38231	11933.000489598144	88
0	38235	11933.382490252159	89
0	38236	11934.595586084392	88
0	38240	11936.308873270889	89
0	38241	11936.426832192395	88
0	38245	11937.327881399741	89
0	38246	11937.871159986224	88
0	38250	11938.089272214175	89
0	38251	11939.460694930706	88
0	38254	11941.073295425255	87
0	38258	11941.330421992827	88
0	38259	11942.703061627414	87
0	38263	11942.941403057105	88
0	38265	11943.217834232099	89
0	38267	11944.450075982032	90
0	38268	11944.559021680619	89
0	38272	11945.229509221726	90
0	38273	11946.442765178162	89
0	38277	11946.585905481102	90
0	38279	11947.528787259435	91
0	38280	11948.088049329634	90
0	38283	11949.47931907438	89
0	38286	11951.160467434305	88
0	38290	11952.96124702142	89
0	38291	11953.109049519341	88
0	38295	11954.799533825456	89
0	38296	11954.944492357973	88
0	38300	11955.640686389473	89
0	38302	11955.825904867988	90
0	38303	11956.261924074408	89
0	38306	11957.855139957372	88
0	38310	11958.467298069285	89
0	38312	11959.628771309817	90
0	38313	11959.723063402068	89
0	38317	11959.813020533167	90
0	38319	11960.009614745126	91
0	38320	11961.21629043464	90
0	38324	11961.89910729236	91
0	38326	11962.423410538958	92
0	38327	11962.794439122457	91
0	38331	11963.03410968829	92
0	38333	11964.123619459077	93
0	38334	11964.767301246528	92
0	38337	11966.182362714414	91
0	38341	11967.508786031698	92
0	38342	11968.062614565533	91
0	38346	11968.463308206601	92
0	38348	11968.98064679801	93
0	38349	11969.291099964459	92
0	38353	11969.400555728134	93
0	38355	11969.739071624476	94
0	38356	11970.785494566713	93
0	38359	11972.310660463948	92
0	38363	11972.520953596892	93
0	38365	11973.551467657058	94
0	38366	11974.209375063893	93
0	38370	11975.067730152262	94
0	38372	11975.271111725554	95
0	38373	11975.879084627335	94
0	38377	11976.391188219276	95
0	38378	11977.307106307526	94
0	38382	11977.70520012234	95
0	38384	11978.311071908002	96
0	38385	11979.202091806759	95
0	38388	11980.75100702439	94
0	38391	11981.982033222546	93
0	38395	11982.150971571581	94
0	38396	11983.267386661847	93
0	38400	11983.57084891518	94
0	38401	11984.783201907021	93
0	38405	11984.999111227766	94
0	38407	11986.107262326717	95
0	38408	11986.631466939677	94
0	38412	11987.932326390115	95
0	38413	11988.48490183149	94
0	38418	11990.284643138018	93
0	38422	11990.396183611113	94
0	38424	11991.431708963267	95
0	38425	11991.746182223972	94
0	38429	11992.521082225657	95
0	38430	11993.561414250735	94
0	38433	11995.240435099419	93
0	38436	11997.228524960954	92
0	38440	11997.545170762377	93
0	38442	11997.564891438973	94
0	38444	11998.143841830847	95
0	38445	11999.035299612027	94
0	38449	11999.333466185261	95
0	38450	12000.256449128133	94
0	38454	12000.706649526918	95
0	38455	12001.697026619692	94
0	38458	12003.50170352776	93
0	38461	12005.001494683702	92
0	38465	12006.420465079439	93
0	38467	12006.590354037222	94
0	38468	12006.751256122258	93
0	38472	12006.938790577113	94
0	38474	12007.27765227618	95
0	38476	12007.412764534041	96
0	38477	12008.67312373687	95
0	38480	12010.579503315505	94
0	38484	12011.512639233376	95
0	38485	12011.908743901182	94
0	38489	12012.365467289129	95
0	38490	12013.430804606531	94
0	38494	12013.433431157978	95
0	38498	12014.95442573366	96
0	38499	12015.186708232951	95
0	38503	12015.705149437857	96
0	38504	12017.05617028736	95
0	38508	12017.133132585986	96
0	38510	12018.162767192137	97
0	38511	12018.931364075099	96
0	38515	12019.282945776612	97
0	38517	12019.590415019653	98
0	38519	12019.631905475351	99
0	38520	12020.914203897123	98
0	38524	12020.920565742897	99
0	38526	12021.327051176696	100
0	38527	12022.852765899901	99
0	38530	12024.505867877421	98
0	38533	12026.425847981875	97
0	38537	12026.460244301614	98
0	38539	12027.238011205418	99
0	38540	12028.078689890173	98
0	38544	12028.938093892726	99
0	38546	12029.247378118285	100
0	38547	12029.920139676151	99
0	38550	12031.786284390097	98
0	38554	12032.530308881153	99
0	38555	12033.416262891707	98
0	38559	12033.441347615901	99
0	38560	12035.222879147162	98
0	38564	12035.414634526934	99
0	38565	12036.865620502648	98
0	38568	12038.528091616374	97
0	38572	12039.603650945104	98
0	38573	12040.028033117582	97
0	38577	12040.959100425917	98
0	38578	12041.901224074704	97
0	38582	12042.524374139028	98
0	38583	12043.755350695928	97
0	38587	12044.955876163358	98
0	38588	12045.167933945549	97
0	38592	12046.975061651898	98
0	38593	12047.036392293875	97
0	38597	12048.612377378002	98
0	38598	12048.748934764978	97
0	38602	12049.320465020263	98
0	38604	12049.543366152404	99
0	38605	12050.247822754834	98
0	38609	12050.406771793978	99
0	38610	12052.161429879446	98
0	38614	12052.580476458537	99
0	38616	12052.86970101202	100
0	38617	12053.753125685644	99
0	38620	12055.215251246844	98
0	38624	12055.754718981051	99
0	38626	12056.350357921033	100
0	38627	12057.036272625629	99
0	38630	12058.557413625721	98
0	38633	12059.911259599779	97
0	38637	12060.605676897316	98
0	38638	12061.568018455807	97
0	38642	12062.159669844323	98
0	38643	12063.078624606881	97
0	38647	12064.344954189424	98
0	38648	12064.547319963764	97
0	38652	12065.47373145674	98
0	38653	12065.776891969148	97
0	38657	12066.19948705093	98
0	38658	12067.101153687764	97
0	38661	12068.585948770311	96
0	38665	12069.50721695347	97
0	38667	12069.729205900117	98
0	38668	12070.223693213802	97
0	38672	12071.481120747907	98
0	38673	12071.638510246393	97
0	38677	12072.011984965162	98
0	38678	12073.569839534168	97
0	38682	12074.329392431178	98
0	38683	12075.429501845133	97
0	38687	12075.652415020022	98
0	38688	12076.691314140339	97
0	38692	12076.882967263967	98
0	38693	12078.539679720443	97
0	38696	12079.756754232575	96
0	38700	12080.144973830722	97
0	38702	12080.950461768816	98
0	38703	12081.005126871359	97
0	38707	12081.097784324747	98
0	38709	12081.809267989822	99
0	38710	12082.838959249858	98
0	38714	12083.553818748744	99
0	38716	12084.652519805504	100
0	38717	12084.689976738397	99
0	38721	12085.315806923208	100
0	38722	12086.378055228483	99
0	38725	12087.993292483132	98
0	38729	12089.276639932594	99
0	38730	12089.472988974306	98
0	38735	12091.146631534959	97
0	38738	12092.350011009539	96
0	38742	12092.900711350258	97
0	38743	12093.961731212961	96
0	38746	12095.722697898748	95
0	38750	12096.308211874858	96
0	38752	12096.558095199021	97
0	38754	12096.725235261743	98
[...]
6	34142	10671.360347036259	362
6	34154	10673.922546288751	363
6	34173	10680.275210561605	364
6	34215	10693.193159545801	365
6	34281	10713.1705270643	366
6	34307	10720.962651903309	367
6	34402	10746.295919225069	368
6	34510	10782.817472560126	369
6	34533	10790.152134108096	370
6	34546	10796.142661575649	371
6	34648	10826.724122692486	372
6	34650	10827.094197565884	373
6	34769	10862.791342581802	374
6	34789	10868.323945159027	375
6	34798	10870.373853419275	376
6	34873	10894.595118568426	377
6	34915	10907.039073716684	378
6	34943	10915.606503787144	379
6	34954	10917.273868072103	380
6	34991	10927.574602769334	381
6	35108	10963.865926377386	382
6	35120	10968.175966631645	383
6	35249	11010.509434342781	384
6	35275	11018.669475927815	385
6	35363	11045.177830244374	386
6	35436	11068.557897556379	387
6	35624	11128.895277124676	388
6	35708	11153.692251098924	389
6	35750	11166.595584493693	390
6	35755	11168.086222018372	391
6	35780	11176.131923435813	392
6	36065	11265.084266210899	393
6	36279	11327.924497590843	394
6	36318	11337.895877486495	395
6	36348	11348.900401026773	396
6	36354	11349.940444062261	397
6	36416	11372.413593932596	398
6	36427	11374.064560951952	399
6	36504	11399.396347152445	400
6	36509	11402.263314104778	401
6	36641	11444.090466068311	402
6	37037	11569.913687365822	403
6	37164	11608.290709966696	404
6	37179	11612.947355834395	405
6	37254	11639.805510918409	406
6	37259	11639.920056942136	407
6	37304	11650.651153989044	408
6	37366	11670.769671288537	409
6	37448	11695.253512802742	410
6	37552	11725.531110931233	411
6	37741	11784.578051065814	412
6	37795	11800.815785432074	413
6	37845	11816.701763763499	414
6	38125	11899.151231362019	415
6	38157	11907.655064930793	416
6	38230	11931.450491036844	417
6	38417	11989.242787880478	418
6	38496	12014.442606080156	419
6	38734	12090.250303682358	420
6	38873	12135.274516196553	421
6	39142	12223.457925075202	422
6	39157	12227.867933747045	423
6	39247	12253.912642076757	424
6	39272	12261.208029168907	425
6	39287	12264.78267039206	426
6	39706	12397.306622059944	427
6	40069	12510.795291846466	428
6	40116	12526.314860009708	429
6	40237	12566.053861485631	430
6	40354	12604.457198402799	431
6	40456	12632.638916822719	432
6	40469	12636.41143695193	433
6	40490	12645.543059743551	434
6	40589	12673.359344179458	435
6	40681	12702.512585924839	436
6	40799	12740.077201304165	437
6	40818	12744.875447564997	438
6	40949	12784.788928433916	439
6	40959	12788.114454810448	440
6	40966	12790.065679916095	441
6	41024	12808.998165862211	442
6	41100	12832.985334427461	443
6	41339	12903.51133808445	444
6	41344	12904.534408353821	445
6	41365	12909.983916082278	446
6	41377	12912.954356507235	447
6	41382	12914.474730441403	448
6	41418	12924.778968042807	449
6	41534	12962.296476404089	450
6	41694	13011.083838044882	451
6	41841	13060.595934530598	452
6	41960	13099.861508915055	453
6	41965	13101.109579411217	454
6	41988	13107.629484198855	455
6	42022	13117.088173478533	456
6	42170	13165.448601780302	457
6	42177	13166.103720638778	458
6	42239	13187.821275442659	459
6	42456	13258.353521259915	460
6	42486	13268.547860191856	461
6	42528	13281.381142416838	462
6	42819	13369.937500293325	463
6	42880	13389.030138640344	464
6	43018	13435.280250292547	465
6	43108	13464.67997085808	466
6	43166	13481.701060469268	467
6	43206	13493.800940549925	468
6	43312	13528.180397604253	469
6	43347	13539.340463574243	470
6	43485	13580.999452850536	471
6	43554	13603.850028249625	472
6	43750	13667.388762730748	473
6	43829	13690.940485264336	474
6	43845	13694.29814072032	475
6	44005	13748.625831509231	476
6	44238	13822.30763804163	477
6	44415	13880.25842881811	478
6	44430	13884.803779875117	479
6	44450	13891.518620965277	480
6	44485	13899.736071716056	481
6	44647	13947.893832372783	482
6	44743	13976.813925341301	483
6	44819	14000.597350482386	484
6	44827	14003.084730040543	485
6	44856	14010.735799605934	486
6	44878	14017.607158657072	487
6	44927	14031.579436179638	488
6	45099	14080.396339701529	489
6	45269	14133.978047413811	490
6	45442	14190.283689563405	491
6	45887	14331.186720578501	492
6	46196	14433.748347884991	493
6	46211	14438.806090047076	494
6	46274	14456.222418648337	495
6	46406	14502.157493290165	496
6	46464	14520.646417009583	497
6	46630	14570.131653897697	498
6	46644	14572.44925391489	499
6	46767	14611.529591016627	500
6	46879	14648.422942312231	501
6	47108	14718.603003801205	502
6	47120	14721.176847957211	503
6	47251	14762.047639383053	504
6	47267	14766.648085746852	505
6	47316	14781.412812594063	506
6	47879	14962.550806967958	507
6	47916	14970.877049451805	508
6	48012	15005.753031087502	509
6	48087	15027.333452746775	510
6	48099	15031.173250349391	511
6	48358	15114.552561056293	512
6	48363	15116.175705248763	513
6	48493	15159.567946707194	514
6	48575	15181.365038446368	515
6	48604	15189.644568368572	516
6	48624	15195.800436726791	517
6	48687	15216.451526386363	518
6	48735	15231.775477221565	519
6	48799	15251.347604263971	520
6	48894	15279.844556099329	521
6	48957	15302.332961899381	522
6	49072	15336.328911866396	523
6	49084	15339.822491747102	524
6	49193	15376.480003268469	525
6	49304	15411.198069614953	526
6	49363	15428.066139009278	527
6	49480	15466.341175232822	528
6	49485	15468.609713870166	529
6	49624	15515.687812892325	530
6	49676	15531.793457403899	531
6	49692	15535.093113614485	532
6	49754	15554.118699451719	533
6	49761	15555.188256759546	534
6	49838	15582.159524885133	535
6	50069	15656.510154866782	536
6	50234	15706.67213167424	537
6	50271	15717.847256806066	538
6	50354	15745.0829581881	539
6	50382	15754.403052618318	540
6	50452	15773.227671992556	541
6	50498	15785.168465314032	542
6	50654	15839.463329341747	543
6	50870	15902.260964838832	544
6	50973	15932.399125334754	545
6	51051	15957.548122368073	546
6	51501	16098.17747857719	547
6	51570	16118.290107104731	548
6	51868	16214.600178538971	549
6	52112	16288.893317851947	550
6	52128	16291.817232873726	551
6	52278	16334.950901872972	552
6	52328	16350.5664736456	553
6	52338	16353.56193746216	554
6	52570	16425.485412677026	555
6	52689	16463.299135725388	556
6	52766	16489.3195519174	557
6	52883	16529.34307971601	558
6	52988	16559.820687732192	559
6	53176	16617.245412988286	560
6	53317	16661.232237236491	561
6	53321	16662.589383312682	562
6	53358	16673.069924922229	563
6	53455	16705.041898192216	564
6	53488	16715.61056861535	565
6	53596	16749.36111461459	566
6	53697	16785.160210524303	567
6	53739	16797.438763209982	568
6	53746	16798.937636558993	569
6	54201	16940.027993050628	570
6	54223	16947.394718292556	571
6	54379	16995.112244456348	572
6	54734	17114.297933510596	573
6	54784	17127.889163058432	574
6	54876	17157.767603391245	575
6	55069	17211.766562561278	576
6	55122	17229.209264261332	577
6	55196	17251.610805497738	578
6	55249	17268.517689147512	579
6	55310	17288.894400482297	580
6	55528	17360.77936482481	581
6	55544	17364.387340104792	582
6	55789	17446.012097905695	583
6	55910	17485.531569724545	584
6	56116	17548.208002196433	585
6	56222	17578.369502419884	586
6	56289	17597.051777570498	587
6	56601	17699.648628982125	588
6	56678	17720.853749224551	589
6	56724	17733.498035755989	590
6	56838	17772.178417858449	591
6	56893	17788.732657516476	592
6	56908	17793.447811786307	593
6	57192	17882.625799727356	594
6	57199	17884.00930007611	595
6	57237	17895.585083837552	596
6	57307	17916.433748540314	597
6	57336	17925.018661257591	598
6	57344	17927.876945611829	599
6	57541	17984.372345902521	600
6	57776	18056.791465807214	601
6	57783	18059.353221846949	602
6	57867	18082.636316468117	603
6	58041	18141.651633943692	604
6	58161	18181.372194667269	605
6	58218	18198.687206416817	606
6	58238	18206.058369102792	607
6	58338	18238.74100035537	608
6	58358	18243.588163340825	609
6	58370	18247.076893456948	610
6	58680	18345.880335143136	611
6	58812	18387.434257896864	612
6	58959	18437.518986155778	613
6	59048	18465.354238837218	614
6	59067	18474.039682804443	615
6	59117	18489.976717210098	616
6	59409	18580.547208904652	617
6	59470	18600.111822464351	618
6	59771	18698.482791181294	619
6	59789	18704.091149269285	620
6	59946	18752.118819981647	621
6	59995	18766.57573139345	622
6	60057	18784.831038017144	623
6	60123	18807.666671287752	624
6	60155	18817.749427587581	625
6	60216	18834.854990796532	626
6	60311	18866.321963531408	627
6	60347	18875.695447470415	628
6	60684	18981.322292315777	629
6	60703	18986.676383032284	630
6	61013	19087.194995401463	631
6	61124	19124.921041145985	632
6	61391	19214.832480425475	633
6	61516	19254.161772090562	634
6	61546	19264.236952849509	635
6	61551	19265.893459370904	636
6	61729	19318.777242762369	637
6	61791	19336.697358554456	638
6	61824	19348.152882888443	639
6	61921	19378.338663715273	640
6	62009	19407.893982316213	641
6	62111	19441.47738335112	642
6	62150	19453.995732446788	643
6	62238	19480.314855968731	644
6	62480	19552.626852400059	645
6	62512	19562.206475921181	646
6	62517	19563.432903540629	647
6	62567	19576.610011280293	648
6	62753	19637.720772865511	649
6	62804	19651.634474873163	650
6	62887	19678.940917649779	651
6	62988	19709.306861249331	652
6	63101	19744.373573410917	653
6	63128	19753.104292038737	654
6	63249	19788.119300787434	655
6	63340	19816.265607326594	656
6	63360	19821.831609212466	657
6	63450	19852.296509575221	658
6	63532	19878.462553474222	659
6	63544	19881.002915034915	660
6	63585	19893.985346558689	661
6	63638	19908.245544518324	662
6	63643	19908.702593371975	663
6	63719	19934.599477148608	664
6	63903	19986.086249478318	665
6	63908	19986.965616914478	666
6	64106	20044.324142398901	667
6	64108	20044.801405249993	668
6	64185	20069.572378146175	669
6	64210	20076.133039847164	670
6	64474	20159.232985572702	671
6	64537	20178.832710947319	672
6	64602	20200.743859749064	673
6	64658	20221.331887240144	674
6	64779	20256.770597158113	675
6	64799	20263.947678096667	676
6	64885	20290.133659163921	677
6	64890	20290.912312116097	678
6	65227	20397.657623139684	679
6	65241	20400.78564616515	680
6	65279	20411.157346991946	681
6	65377	20446.97480184919	682
6	65453	20468.952907098513	683
6	65474	20475.998156636418	684
6	65510	20485.845660018266	685
6	65646	20528.308012799713	686
6	65693	20544.152483039987	687
6	65736	20556.7402753458	688
6	65789	20571.92644781604	689
6	65796	20572.795627912476	690
6	65886	20602.386005236896	691
6	66076	20656.820859631756	692
6	66103	20665.271079631106	693
6	66170	20683.828061704003	694
6	66259	20711.77394363951	695
6	66292	20722.538758222402	696
6	66320	20732.366854180654	697
6	66389	20752.732270320569	698
6	66471	20774.491486157607	699
6	66611	20819.061593068476	700
6	66775	20872.608437230393	701
6	66834	20895.244384905314	702
6	66843	20896.46591539167	703
6	66850	20898.065261724223	704
6	66873	20905.142556449591	705
6	66984	20940.834075029304	706
6	67041	20959.168746053485	707
6	67150	20992.380329574566	708
6	67167	20998.431879037772	709
6	67227	21017.721242905486	710
6	67414	21080.641969473149	711
6	67483	21102.419480618502	712
6	67488	21103.294317627464	713
6	67680	21164.609750596926	714
6	67768	21191.664497134017	715
6	67915	21238.502310362146	716
6	67977	21257.348532526948	717
6	68018	21270.259876805978	718
6	68073	21286.154049992611	719
6	68085	21288.706396837403	720
6	68167	21313.21775319272	721
6	68220	21330.982990003858	722
6	68848	21530.910743560793	723
6	68891	21542.349563563766	724
6	68945	21563.978433098736	725
6	68978	21571.555139391973	726
6	69018	21582.837751289553	727
6	69186	21635.640234595426	728
6	69282	21666.191695375158	729
6	69568	21756.285998793101	730
6	69616	21770.477006482507	731
6	69802	21829.686478570231	732
6	69998	21892.415272768813	733
6	70078	21919.180471395973	734
6	70137	21933.924255437522	735
6	70269	21974.966775753602	736
6	70401	22017.868461845229	737
6	70478	22039.039880047924	738
6	70491	22043.741436176896	739
6	70588	22077.842404969873	740
6	70970	22197.157332451679	741
6	71091	22237.801511682588	742
6	71174	22262.243958732473	743
6	71232	22283.421425832786	744
6	71261	22290.67961548171	745
6	71266	22291.412189123183	746
6	71304	22305.901909693326	747
6	71338	22313.919530390678	748
6	71561	22384.562198232245	749
6	71727	22437.498863531602	750
6	71732	22437.628030529433	751
6	71806	22461.176512490421	752
6	71991	22515.38544825341	753
6	72020	22523.510318851418	754
6	72139	22561.13038164036	755
6	72208	22581.235387856326	756
6	72215	22582.452423529512	757
6	72308	22613.435547761181	758
6	72382	22639.428503799981	759
6	72526	22686.516925176163	760
6	72542	22692.718831751874	761
6	72561	22698.074720345863	762
6	72847	22787.714627579186	763
6	72852	22789.498687806594	764
6	72942	22817.65649334801	765
6	72982	22830.907059316131	766
6	73056	22852.997178521135	767
6	73090	22863.396033370298	768
6	73132	22876.140091720499	769
6	73174	22889.7049869352	770
6	73181	22891.181439355757	771
6	73346	22946.253482847882	772
6	73498	22997.45072184973	773
6	73503	22998.796596890486	774
6	73610	23034.913567700339	775
6	73617	23037.012298205677	776
6	73983	23157.941495821232	777
6	73992	23160.277766908167	778
6	74059	23180.999162997106	779
6	74111	23197.22412582628	780
6	74157	23210.022504416133	781
6	74175	23216.243313779483	782
6	74313	23260.349330478563	783
6	74323	23264.189794585546	784
6	74615	23359.618172005499	785
6	74640	23367.129040693997	786
6	74644	23367.415722272976	787
6	74707	23384.894237642093	788
6	74902	23448.652708780344	789
6	74958	23467.172903396113	790
6	74992	23478.53571736189	791
6	75068	23504.851469619569	792
6	75369	23601.649705338963	793
6	75417	23617.455108949035	794
6	75532	23654.050250216432	795
6	76153	23854.797365643025	796
6	76226	23875.229835729536	797
6	76303	23899.387949579859	798
6	76669	24012.892128619062	799
6	76813	24058.532390868798	800
6	76829	24062.22794899313	801
6	76926	24091.706496655773	802
6	77110	24153.09047836058	803
6	77161	24171.936569083823	804
6	77252	24201.639463480691	805
6	77376	24239.913721806001	806
6	77939	24419.930446077989	807
6	78097	24472.385407853751	808
6	78102	24473.959864568979	809
6	78154	24486.551550034016	810
6	78168	24489.809395444779	811
6	78197	24497.952557001754	812
6	78202	24498.178371947511	813
6	78232	24508.318439392844	814
6	78234	24508.426978835247	815
6	78299	24529.578179863812	816
6	78315	24532.954125068848	817
6	78371	24552.256654098639	818
6	78414	24565.64179691063	819
6	78416	24566.225224171996	820
6	78444	24574.677054759231	821
6	78488	24589.310186308919	822
6	78544	24604.349084709531	823
6	78738	24666.671629997584	824
6	78813	24687.621996533015	825
6	78945	24731.870682080495	826
6	79089	24773.963074444342	827
6	79127	24787.76278073955	828
6	79163	24798.412297589225	829
6	79172	24799.637800887383	830
6	79391	24864.7653808541	831
6	79393	24865.68416125457	832
6	79398	24866.927642502966	833
6	79541	24912.753289751789	834
6	79663	24952.892301947876	835
6	79839	25007.021343786943	836
6	79885	25021.757316980995	837
6	80272	25139.359142754847	838
6	80357	25167.474599440441	839
6	80473	25204.642138415857	840
6	80519	25219.077087911449	841
6	80532	25221.356619464771	842
6	80685	25271.618531223938	843
6	80738	25288.070121968825	844
6	80754	25291.470559256239	845
6	80932	25350.084787454734	846
6	81598	25558.915075604855	847
6	81603	25560.555800134748	848
6	81714	25591.311133670234	849
6	81729	25595.871294911997	850
6	81793	25614.555918385313	851
6	81809	25619.117057446697	852
6	81899	25647.484787393553	853
6	81929	25655.60846576214	854
6	81973	25669.338783375298	855
6	82067	25700.976727112003	856
6	82234	25754.40008213468	857
6	82244	25757.825378887289	858
6	82325	25783.875524820475	859
6	82349	25793.764427022405	860
6	82401	25806.048143613719	861
6	82405	25806.889081518222	862
6	82437	25815.610647116965	863
6	82470	25822.782416728162	864
6	82545	25847.854595367925	865
6	82606	25865.124182528085	866
6	82810	25931.337206324514	867
6	82893	25955.801946542196	868
6	82926	25964.959187482518	869
6	82989	25982.13572306773	870
6	83415	26110.370486154539	871
6	83452	26124.54165880503	872
6	83481	26133.192110820381	873
6	83520	26145.455125134723	874
6	83545	26154.323301167841	875
6	83601	26167.412224288155	876
6	83761	26217.290882695232	877
6	83955	26279.128653829109	878
6	83988	26287.293182336694	879
6	84029	26298.636736708333	880
6	84106	26321.437899687231	881
6	84165	26338.478502084391	882
6	84217	26354.185916565824	883
6	84252	26361.912305873952	884
6	84328	26387.159388627684	885
6	84330	26387.337362774751	886
6	84356	26396.30712961385	887
6	84391	26404.069737002378	888
6	84398	26406.278421343048	889
6	84497	26438.178698935587	890
6	84521	26442.635704668811	891
6	84650	26482.080872584141	892
6	84676	26490.824886123193	893
6	84736	26509.832746385314	894
6	84774	26522.800189935762	895
6	85006	26600.301374864927	896
6	85043	26611.057109979708	897
6	85067	26618.710648313566	898
6	85069	26619.027399229982	899
6	85089	26624.979430765215	900
6	85317	26700.928254093343	901
6	85354	26714.571785657008	902
6	85378	26721.075162413344	903
6	85443	26740.701667572125	904
6	85511	26762.117749960234	905
6	85623	26794.97810991511	906
6	85732	26833.960860277539	907
6	85862	26875.815837527276	908
6	85980	26911.030046266838	909
6	86000	26916.832358553807	910
6	86052	26929.873962334799	911
6	86079	26938.355179234497	912
6	86169	26968.812081250508	913
6	86315	27016.636047551987	914
6	86387	27043.481521030609	915
6	86534	27086.830861609134	916
6	86708	27139.696037850507	917
6	86719	27142.764057953362	918
6	86741	27148.945517068341	919
6	87286	27317.499540127809	920
6	87565	27407.013895726384	921
6	87570	27409.262721560359	922
6	87670	27440.861348293698	923
6	87699	27448.781166652669	924
6	87709	27451.454153307525	925
6	87886	27506.718047559055	926
6	87905	27512.562091702306	927
6	87954	27527.240325386786	928
6	88069	27564.50464123432	929
6	88136	27584.425917502308	930
6	88183	27597.521962772803	931
6	88185	27598.180526898597	932
6	88313	27634.004265051192	933
6	88327	27636.79196527638	934
6	88334	27638.782821168171	935
6	88385	27655.273408143805	936
6	88410	27662.686557776889	937
6	88419	27664.522795965197	938
6	88539	27701.741447611735	939
6	88602	27719.045369062881	940
6	88629	27728.183575397495	941
6	88689	27747.275644316355	942
6	88699	27751.568977255267	943
6	88747	27765.451263108353	944
6	88804	27783.250131344055	945
6	88920	27822.334911675293	946
6	88934	27825.659733177429	947
6	88954	27832.247607815488	948
6	89102	27878.881249394006	949
6	89148	27894.725744735726	950
6	89521	28006.807630948796	951
6	89875	28116.248637956754	952
6	89913	28129.015747796448	953
6	89963	28141.758814239987	954
6	90262	28238.964058903681	955
6	90370	28274.439659628576	956
6	90431	28292.901148035811	957
6	91075	28499.155280661025	958
6	91135	28515.723167875843	959
6	91137	28515.78161739261	960
6	91149	28518.962928420698	961
6	91168	28524.306579544812	962
6	91290	28564.008162428312	963
6	91336	28579.199780407914	964
6	91468	28624.785458446022	965
6	91548	28651.773728177978	966
6	91629	28674.911657281685	967
6	91773	28722.308273901031	968
6	91922	28766.928031761564	969
6	92027	28799.191676497602	970
6	92181	28847.082998279888	971
6	92246	28865.847521474431	972
6	92343	28894.328804908812	973
6	92350	28896.193601689661	974
6	92359	28898.060376173372	975
6	92714	29007.287877433249	976
6	92744	29016.392056458836	977
6	92877	29052.373144284535	978
6	93091	29118.969839128678	979
6	93126	29126.608573950714	980
6	93224	29157.501744310404	981
6	93377	29196.858290851404	982
6	93386	29199.167455963827	983
6	93420	29207.745926441789	984
6	93592	29261.526983708577	985
6	93628	29273.270423957588	986
6	93726	29299.707028972321	987
6	93900	29356.817364123607	988
6	94054	29405.333777399853	989
6	94194	29444.441579249201	990
6	94273	29468.431380996758	991
6	94372	29499.212591125609	992
6	94388	29501.965174685355	993
6	95177	29746.277874313772	994
6	95212	29757.634864282066	995
6	95330	29793.270477401221	996
6	95342	29795.959866972923	997
6	95377	29807.002386396033	998
6	95436	29825.532523358639	999
6	95466	29834.450050562043	1000
6	95556	29862.564965520687	1001
6	95581	29870.330742295563	1002
6	95588	29871.555244031401	1003
6	95685	29901.544043897624	1004
6	95843	29948.115069924285	1005
6	95877	29956.939211397589	1006
6	95939	29975.943861565525	1007

